gem5 Simulator System.  http://gem5.org
gem5 is copyrighted software; use the --copyright option for details.

gem5 compiled Apr 16 2020 11:50:58
gem5 started Apr 30 2020 17:00:58
gem5 executing on ece018.ece.local.cmu.edu, pid 248277
command line: build/X86/gem5.opt --debug-flags=Exec,Indirect,Cache configs/example/se.py --cmd=attackv2/demoRet --cpu-type=DerivO3CPU --caches --l1d_size=64kB --l1i_size=16kB --needsTSO=0 --scheme=UnsafeBaseline

**********
info: Configure for DerivO3CPU. needsTSO=0; scheme=UnsafeBaseline
**********
Global frequency set at 1000000000000 ticks per second
Info: simulation uses scheme: UnsafeBaseline; needsTSO=0; allowSpecBuffHit=0
**** REAL SIMULATION ****
      0: system.cpu.icache: ReadReq [f00:f3f] IF miss at addr f00
    500: global: Squashing seq:0
   1000: system.cpu.icache: sendMSHRQueuePacket: MSHR ReadReq [f00:f3f] IF
   1000: system.cpu.icache: createMissPacket: created ReadCleanReq [f00:f3f] IF from ReadReq [f00:f3f] IF
   1000: system.cpu.icache: ReadReq [f00:f3f] IF miss at addr f00
   1000: system.cpu.icache: recvTimingReq coalescing MSHR for ReadReq [f00:f3f] IF
  77000: system.cpu.icache: recvTimingResp: Handling response ReadResp [f00:f3f] IF
  77000: system.cpu.icache: Block for addr 0xf00 being updated in Cache
  77000: system.cpu.icache: Block addr 0xf00 (ns) moving from state 0 to state: 7 (E) valid: 1 writable: 1 readable: 1 dirty: 0 tag: 0
  79000: system.cpu.icache: ReadReq [f40:f7f] IF miss at addr f40
  80000: system.cpu.icache: sendMSHRQueuePacket: MSHR ReadReq [f40:f7f] IF
  80000: system.cpu.icache: createMissPacket: created ReadCleanReq [f40:f7f] IF from ReadReq [f40:f7f] IF
  81000: system.cpu.dcache: ReadReq [c2e60:c2e67] miss at addr c2e60
  82000: system.cpu.dcache: sendMSHRQueuePacket: MSHR ReadReq [c2e60:c2e67]
  82000: system.cpu.dcache: createMissPacket: created ReadSharedReq [c2e40:c2e7f] from ReadReq [c2e60:c2e67]
  78500: system.cpu T0 : @_start    : xor	ebp, ebp              
  78500: system.cpu T0 : @_start.0  :   XOR_R_R : xor   ebp, ebp, ebp : IntAlu :  D=0x0000000000000000
  78500: system.cpu T0 : @_start+2    : mov	r9, rdx               
  78500: system.cpu T0 : @_start+2.0  :   MOV_R_R : mov   r9, r9, rdx : IntAlu :  D=0x0000000000000000
  82500: global: Committing seq:2
 135000: system.cpu.icache: recvTimingResp: Handling response ReadResp [f40:f7f] IF
 135000: system.cpu.icache: Block for addr 0xf40 being updated in Cache
 135000: system.cpu.icache: Block addr 0xf40 (ns) moving from state 0 to state: 7 (E) valid: 1 writable: 1 readable: 1 dirty: 0 tag: 0
 140000: global: Squashing seq:20
 140500: system.cpu.icache: ReadReq [1740:177f] IF miss at addr 1740
 141500: system.cpu.icache: sendMSHRQueuePacket: MSHR ReadReq [1740:177f] IF
 141500: system.cpu.icache: createMissPacket: created ReadCleanReq [1740:177f] IF from ReadReq [1740:177f] IF
 149000: system.cpu.dcache: recvTimingResp: Handling response ReadResp [c2e40:c2e7f]
 149000: system.cpu.dcache: Block for addr 0xc2e40 being updated in Cache
 149000: system.cpu.dcache: Block addr 0xc2e40 (ns) moving from state 0 to state: 7 (E) valid: 1 writable: 1 readable: 1 dirty: 0 tag: 18
  78500: system.cpu T0 : @_start+5    : pop	rsi                   
  78500: system.cpu T0 : @_start+5.0  :   POP_R : ldis   t1, SS:[rsp] : MemRead :  D=0x0000000000000001 A=0x7fffffffee60
  78500: system.cpu T0 : @_start+5.1  :   POP_R : addi   rsp, rsp, 0x8 : IntAlu :  D=0x00007fffffffee68
 151500: global: Committing seq:4
  78500: system.cpu T0 : @_start+5.2  :   POP_R : mov   rsi, rsi, t1 : IntAlu :  D=0x0000000000000001
  78500: system.cpu T0 : @_start+6    : mov	rdx, rsp              
  78500: system.cpu T0 : @_start+6.0  :   MOV_R_R : mov   rdx, rdx, rsp : IntAlu :  D=0x00007fffffffee68
  78500: system.cpu T0 : @_start+9    : and	rax, 0xfffffffffffffff0
  78500: system.cpu T0 : @_start+9.0  :   AND_R_I : limm   t1, 0xfffffffffffffff0 : IntAlu :  D=0xfffffffffffffff0
  78500: system.cpu T0 : @_start+9.1  :   AND_R_I : and   rsp, rsp, t1 : IntAlu :  D=0x0000000000000000
  79000: system.cpu T0 : @_start+13    : push	rax                  
  79000: system.cpu T0 : @_start+13.0  :   PUSH_R : stis   rax, SS:[rsp + 0xfffffffffffffff8] : MemWrite :  D=0x0000000000000000 A=0x7fffffffee58
  79000: system.cpu T0 : @_start+13.1  :   PUSH_R : subi   rsp, rsp, 0x8 : IntAlu :  D=0x00007fffffffee58
  79000: system.cpu T0 : @_start+14    : push	rsp                  
  79000: system.cpu T0 : @_start+14.0  :   PUSH_R : stis   rsp, SS:[rsp + 0xfffffffffffffff8] : MemWrite :  D=0x00007fffffffee58 A=0x7fffffffee50
  79000: system.cpu T0 : @_start+14.1  :   PUSH_R : subi   rsp, rsp, 0x8 : IntAlu :  D=0x00007fffffffee50
 152000: global: Committing seq:12
  79000: system.cpu T0 : @_start+15    : mov	r15, 0x402010         
  79000: system.cpu T0 : @_start+15.0  :   MOV_R_I : limm   r8, 0x402010 : IntAlu :  D=0x0000000000402010
  79000: system.cpu T0 : @_start+22    : mov	rdi, 0x401f80         
  79000: system.cpu T0 : @_start+22.0  :   MOV_R_I : limm   rcx, 0x401f80 : IntAlu :  D=0x0000000000401f80
 136000: system.cpu T0 : @_start+29    : mov	rdi, 0x4014b2         
 136000: system.cpu T0 : @_start+29.0  :   MOV_R_I : limm   rdi, 0x4014b2 : IntAlu :  D=0x00000000004014b2
 136000: system.cpu T0 : @_start+36    : call	0x81a                
 136000: system.cpu T0 : @_start+36.0  :   CALL_NEAR_I : limm   t1, 0x81a : IntAlu :  D=0x000000000000081a
 136000: system.cpu T0 : @_start+36.1  :   CALL_NEAR_I : rdip   t7, %ctrl153,  : IntAlu :  D=0x0000000000400f46
 136000: system.cpu T0 : @_start+36.2  :   CALL_NEAR_I : stis   t7, SS:[rsp + 0xfffffffffffffff8] : MemWrite :  D=0x0000000000400f46 A=0x7fffffffee48
 136000: system.cpu T0 : @_start+36.3  :   CALL_NEAR_I : subi   rsp, rsp, 0x8 : IntAlu :  D=0x00007fffffffee48
 136000: system.cpu T0 : @_start+36.4  :   CALL_NEAR_I : wrip   , t7, t1 : IntAlu : 
 152500: global: Committing seq:20
 152500: system.cpu.dcache: WriteReq [c2e58:c2e5f] hit state: 7 (E) valid: 1 writable: 1 readable: 1 dirty: 0 tag: 18 at addr c2e58
 152500: system.cpu.dcache: WriteReq [c2e50:c2e57] hit state: f (M) valid: 1 writable: 1 readable: 1 dirty: 1 tag: 18 at addr c2e50
 153000: system.cpu.dcache: WriteReq [c2e48:c2e4f] hit state: f (M) valid: 1 writable: 1 readable: 1 dirty: 1 tag: 18 at addr c2e48
 197000: system.cpu.icache: recvTimingResp: Handling response ReadResp [1740:177f] IF
 197000: system.cpu.icache: Block for addr 0x1740 being updated in Cache
 197000: system.cpu.icache: Block addr 0x1740 (ns) moving from state 0 to state: 7 (E) valid: 1 writable: 1 readable: 1 dirty: 0 tag: 0
 199000: system.cpu.icache: ReadReq [1780:17bf] IF miss at addr 1780
 200000: system.cpu.icache: sendMSHRQueuePacket: MSHR ReadReq [1780:17bf] IF
 200000: system.cpu.icache: createMissPacket: created ReadCleanReq [1780:17bf] IF from ReadReq [1780:17bf] IF
 198000: system.cpu T0 : @__libc_start_main    : push	r15                  
 198000: system.cpu T0 : @__libc_start_main.0  :   PUSH_R : stis   r15, SS:[rsp + 0xfffffffffffffff8] : MemWrite :  D=0x0000000000000000 A=0x7fffffffee40
 198000: system.cpu T0 : @__libc_start_main.1  :   PUSH_R : subi   rsp, rsp, 0x8 : IntAlu :  D=0x00007fffffffee40
 198000: system.cpu T0 : @__libc_start_main+2    : xor	eax, eax              
 198000: system.cpu T0 : @__libc_start_main+2.0  :   XOR_R_R : xor   eax, eax, eax : IntAlu :  D=0x0000000000000000
 202000: global: Committing seq:24
 198000: system.cpu T0 : @__libc_start_main+4    : push	r14                  
 198000: system.cpu T0 : @__libc_start_main+4.0  :   PUSH_R : stis   r14, SS:[rsp + 0xfffffffffffffff8] : MemWrite :  D=0x0000000000000000 A=0x7fffffffee38
 198000: system.cpu T0 : @__libc_start_main+4.1  :   PUSH_R : subi   rsp, rsp, 0x8 : IntAlu :  D=0x00007fffffffee38
 202500: global: Committing seq:26
 202500: system.cpu.dcache: WriteReq [c2e40:c2e47] hit state: f (M) valid: 1 writable: 1 readable: 1 dirty: 1 tag: 18 at addr c2e40
 198000: system.cpu T0 : @__libc_start_main+6    : push	r13                  
 198000: system.cpu T0 : @__libc_start_main+6.0  :   PUSH_R : stis   r13, SS:[rsp + 0xfffffffffffffff8] : MemWrite :  D=0x0000000000000000 A=0x7fffffffee30
 198000: system.cpu T0 : @__libc_start_main+6.1  :   PUSH_R : subi   rsp, rsp, 0x8 : IntAlu :  D=0x00007fffffffee30
 203000: global: Committing seq:28
 203000: system.cpu.dcache: WriteReq [c2e38:c2e3f] miss at addr c2e38
 198000: system.cpu T0 : @__libc_start_main+8    : push	r12                  
 198000: system.cpu T0 : @__libc_start_main+8.0  :   PUSH_R : stis   r12, SS:[rsp + 0xfffffffffffffff8] : MemWrite :  D=0x0000000000000000 A=0x7fffffffee28
 198500: system.cpu T0 : @__libc_start_main+8.1  :   PUSH_R : subi   rsp, rsp, 0x8 : IntAlu :  D=0x00007fffffffee28
 203500: global: Committing seq:30
 203500: system.cpu.dcache: WriteReq [c2e30:c2e37] miss at addr c2e30
 203500: system.cpu.dcache: recvTimingReq coalescing MSHR for WriteReq [c2e30:c2e37]
 198500: system.cpu T0 : @__libc_start_main+10    : push	rbp                  
 198500: system.cpu T0 : @__libc_start_main+10.0  :   PUSH_R : stis   rbp, SS:[rsp + 0xfffffffffffffff8] : MemWrite :  D=0x0000000000000000 A=0x7fffffffee20
 198500: system.cpu T0 : @__libc_start_main+10.1  :   PUSH_R : subi   rsp, rsp, 0x8 : IntAlu :  D=0x00007fffffffee20
 204000: system.cpu.dcache: sendMSHRQueuePacket: MSHR WriteReq [c2e38:c2e3f]
 204000: system.cpu.dcache: createMissPacket: created ReadExReq [c2e00:c2e3f] from WriteReq [c2e38:c2e3f]
 204000: global: Committing seq:32
 204000: system.cpu.dcache: WriteReq [c2e28:c2e2f] miss at addr c2e28
 204000: system.cpu.dcache: recvTimingReq coalescing MSHR for WriteReq [c2e28:c2e2f]
 198500: system.cpu T0 : @__libc_start_main+11    : push	rbx                  
 198500: system.cpu T0 : @__libc_start_main+11.0  :   PUSH_R : stis   rbx, SS:[rsp + 0xfffffffffffffff8] : MemWrite :  D=0x0000000000000000 A=0x7fffffffee18
 198500: system.cpu T0 : @__libc_start_main+11.1  :   PUSH_R : subi   rsp, rsp, 0x8 : IntAlu :  D=0x00007fffffffee18
 198500: system.cpu T0 : @__libc_start_main+12    : sub	rax, 0x138            
 198500: system.cpu T0 : @__libc_start_main+12.0  :   SUB_R_I : limm   t1, 0x138 : IntAlu :  D=0x0000000000000138
 204500: global: Committing seq:35
 204500: system.cpu.dcache: WriteReq [c2e20:c2e27] miss at addr c2e20
 204500: system.cpu.dcache: recvTimingReq coalescing MSHR for WriteReq [c2e20:c2e27]
 198500: system.cpu T0 : @__libc_start_main+12.1  :   SUB_R_I : sub   rsp, rsp, t1 : IntAlu :  D=0x0000000000000000
 205000: global: Committing seq:36
 205000: system.cpu.dcache: WriteReq [c2e18:c2e1f] miss at addr c2e18
 205000: system.cpu.dcache: recvTimingReq coalescing MSHR for WriteReq [c2e18:c2e1f]
 198500: system.cpu T0 : @__libc_start_main+19    : mov	DS:[rsp + 0x18], rdx  
 198500: system.cpu T0 : @__libc_start_main+19.0  :   MOV_M_R : st   rdx, DS:[rsp + 0x18] : MemWrite :  D=0x00007fffffffee68 A=0x7fffffffecf8
 199000: system.cpu T0 : @__libc_start_main+24    : mov	DS:[rsp + 0x20], rcx  
 199000: system.cpu T0 : @__libc_start_main+24.0  :   MOV_M_R : st   rcx, DS:[rsp + 0x20] : MemWrite :  D=0x0000000000401f80 A=0x7fffffffed00
 199000: system.cpu T0 : @__libc_start_main+29    :   CPUID    eax             : IntAlu :  D=0x000000006c756d69
 205500: global: Committing seq:39
 206000: system.cpu.dcache: WriteReq [c2cf8:c2cff] miss at addr c2cf8
 206000: system.cpu.dcache: WriteReq [c2d00:c2d07] miss at addr c2d00
 207000: system.cpu.dcache: sendMSHRQueuePacket: MSHR WriteReq [c2cf8:c2cff]
 207000: system.cpu.dcache: createMissPacket: created ReadExReq [c2cc0:c2cff] from WriteReq [c2cf8:c2cff]
 207001: system.cpu.dcache: sendMSHRQueuePacket: MSHR WriteReq [c2d00:c2d07]
 207001: system.cpu.dcache: createMissPacket: created ReadExReq [c2d00:c2d3f] from WriteReq [c2d00:c2d07]
 208000: system.cpu.dcache: sendMSHRQueuePacket: MSHR WriteReq [c2d00:c2d07]
 208000: system.cpu.dcache: createMissPacket: created ReadExReq [c2d00:c2d3f] from WriteReq [c2d00:c2d07]
 255000: system.cpu.icache: recvTimingResp: Handling response ReadResp [1780:17bf] IF
 255000: system.cpu.icache: Block for addr 0x1780 being updated in Cache
 255000: system.cpu.icache: Block addr 0x1780 (ns) moving from state 0 to state: 7 (E) valid: 1 writable: 1 readable: 1 dirty: 0 tag: 0
 257500: system.cpu.icache: ReadReq [17c0:17ff] IF miss at addr 17c0
 258500: system.cpu.icache: sendMSHRQueuePacket: MSHR ReadReq [17c0:17ff] IF
 258500: system.cpu.icache: createMissPacket: created ReadCleanReq [17c0:17ff] IF from ReadReq [17c0:17ff] IF
 260000: system.cpu.dcache: recvTimingResp: Handling response ReadExResp [c2e00:c2e3f]
 260000: system.cpu.dcache: Block for addr 0xc2e00 being updated in Cache
 260000: system.cpu.dcache: Block addr 0xc2e00 (ns) moving from state 0 to state: 7 (E) valid: 1 writable: 1 readable: 1 dirty: 0 tag: 18
 265000: system.cpu.dcache: recvTimingResp: Handling response ReadExResp [c2cc0:c2cff]
 265000: system.cpu.dcache: Block for addr 0xc2cc0 being updated in Cache
 265000: system.cpu.dcache: Block addr 0xc2cc0 (ns) moving from state 0 to state: 7 (E) valid: 1 writable: 1 readable: 1 dirty: 0 tag: 18
 270000: system.cpu.dcache: recvTimingResp: Handling response ReadExResp [c2d00:c2d3f]
 270000: system.cpu.dcache: Block for addr 0xc2d00 being updated in Cache
 270000: system.cpu.dcache: Block addr 0xc2d00 (ns) moving from state 0 to state: 7 (E) valid: 1 writable: 1 readable: 1 dirty: 0 tag: 18
 256000: system.cpu T0 : @__libc_start_main+31    : cmp	eax, 0x756e6547       
 256000: system.cpu T0 : @__libc_start_main+31.0  :   CMP_R_I : limm   t1d, 0x756e6547 : IntAlu :  D=0x00000000756e6547
 274500: global: Committing seq:40
 275000: global: Squashing seq:49
 275500: system.cpu.icache: ReadReq [1780:17bf] IF hit state: 7 (E) valid: 1 writable: 1 readable: 1 dirty: 0 tag: 0 at addr 1780
 256000: system.cpu T0 : @__libc_start_main+31.1  :   CMP_R_I : sub   t0d, ebx, t1d : IntAlu :  D=0x0000000000000001
 256000: system.cpu T0 : @__libc_start_main+37    : mov	DS:[rsp + 0x8], rdi   
 256000: system.cpu T0 : @__libc_start_main+37.0  :   MOV_M_R : st   rdi, DS:[rsp + 0x8] : MemWrite :  D=0x00000000004014b2 A=0x7fffffffece8
 256000: system.cpu T0 : @__libc_start_main+42    : mov	DS:[rsp + 0x14], rsi  
 256000: system.cpu T0 : @__libc_start_main+42.0  :   MOV_M_R : st   esi, DS:[rsp + 0x14] : MemWrite :  D=0x0000000000000001 A=0x7fffffffecf4
 256000: system.cpu T0 : @__libc_start_main+46    : mov	DS:[rsp + 0x28], r8   
 256000: system.cpu T0 : @__libc_start_main+46.0  :   MOV_M_R : st   r8, DS:[rsp + 0x28] : MemWrite :  D=0x0000000000402010 A=0x7fffffffed08
 256000: system.cpu T0 : @__libc_start_main+51    : mov	DS:[rip + 0x2bdecb], eax
 256000: system.cpu T0 : @__libc_start_main+51.0  :   MOV_P_R : rdip   t7d, %ctrl153,  : IntAlu :  D=0x0000000000401799
 256000: system.cpu T0 : @__libc_start_main+51.1  :   MOV_P_R : st   eax, DS:[t7 + 0x2bdecb] : MemWrite :  D=0x0000000000000007 A=0x6bf664
 256000: system.cpu T0 : @__libc_start_main+57    : jnz	0x14                  
 256000: system.cpu T0 : @__libc_start_main+57.0  :   JNZ_I : rdip   t1, %ctrl153,  : IntAlu :  D=0x000000000040179b
 256500: system.cpu T0 : @__libc_start_main+57.1  :   JNZ_I : limm   t2, 0x14  : IntAlu :  D=0x0000000000000014
 276000: global: Committing seq:48
 256500: system.cpu T0 : @__libc_start_main+57.2  :   JNZ_I : wrip   , t1, t2  : IntAlu : 
 276500: global: Committing seq:49
 276500: global: Looking up 4017b5 (set:237)
 276500: global: Miss 4017b5
 276500: global: Recording 4017b5 seq:70
 276500: system.cpu.icache: ReadReq [17c0:17ff] IF miss at addr 17c0
 276500: system.cpu.icache: recvTimingReq coalescing MSHR for ReadReq [17c0:17ff] IF
 276500: system.cpu.dcache: WriteReq [c2ce8:c2cef] hit state: f (M) valid: 1 writable: 1 readable: 1 dirty: 1 tag: 18 at addr c2ce8
 276500: system.cpu.dcache: WriteReq [c2cf4:c2cf7] hit state: f (M) valid: 1 writable: 1 readable: 1 dirty: 1 tag: 18 at addr c2cf4
 276500: system.cpu.dcache: WriteReq [c2d08:c2d0f] hit state: f (M) valid: 1 writable: 1 readable: 1 dirty: 1 tag: 18 at addr c2d08
 276500: system.cpu.dcache: WriteReq [c0664:c0667] miss at addr c0664
 277500: system.cpu.dcache: sendMSHRQueuePacket: MSHR WriteReq [c0664:c0667]
 277500: system.cpu.dcache: createMissPacket: created ReadExReq [c0640:c067f] from WriteReq [c0664:c0667]
 276500: system.cpu T0 : @__libc_start_main+79    : cmp	eax, 0x68747541       
 276500: system.cpu T0 : @__libc_start_main+79.0  :   CMP_R_I : limm   t1d, 0x68747541 : IntAlu :  D=0x0000000068747541
 280500: global: Committing seq:66
 276500: system.cpu T0 : @__libc_start_main+79.1  :   CMP_R_I : sub   t0d, ebx, t1d : IntAlu :  D=0x0000000000000001
 276500: system.cpu T0 : @__libc_start_main+85    : jz	0x1b6                  
 276500: system.cpu T0 : @__libc_start_main+85.0  :   JZ_I : rdip   t1, %ctrl153,  : IntAlu :  D=0x00000000004017bb
 276500: system.cpu T0 : @__libc_start_main+85.1  :   JZ_I : limm   t2, 0x1b6  : IntAlu :  D=0x00000000000001b6
 281000: global: Committing seq:69
 276500: system.cpu T0 : @__libc_start_main+85.2  :   JZ_I : wrip   , t1, t2   : IntAlu : 
 276500: system.cpu T0 : @__libc_start_main+91    : xor	r15d, r15d            
 276500: system.cpu T0 : @__libc_start_main+91.0  :   XOR_R_R : xor   r15d, r15d, r15d : IntAlu :  D=0x0000000000000000
 281500: global: Committing seq:71
 314000: system.cpu.icache: recvTimingResp: Handling response ReadResp [17c0:17ff] IF
 314000: system.cpu.icache: Block for addr 0x17c0 being updated in Cache
 314000: system.cpu.icache: Block addr 0x17c0 (ns) moving from state 0 to state: 7 (E) valid: 1 writable: 1 readable: 1 dirty: 0 tag: 0
 316000: global: Looking up 4017d0 (set:244)
 316000: global: Miss 4017d0
 316000: global: Recording 4017d0 seq:81
 317000: system.cpu.icache: ReadReq [1800:183f] IF miss at addr 1800
 318000: system.cpu.icache: sendMSHRQueuePacket: MSHR ReadReq [1800:183f] IF
 318000: system.cpu.icache: createMissPacket: created ReadCleanReq [1800:183f] IF from ReadReq [1800:183f] IF
 318500: system.cpu.dcache: ReadReq [c0664:c0667] miss at addr c0664
 318500: system.cpu.dcache: recvTimingReq coalescing MSHR for ReadReq [c0664:c0667]
 315500: system.cpu T0 : @__libc_start_main+94    : xor	r14d, r14d            
 315500: system.cpu T0 : @__libc_start_main+94.0  :   XOR_R_R : xor   r14d, r14d, r14d : IntAlu :  D=0x0000000000000000
 315500: system.cpu T0 : @__libc_start_main+97    : mov	DS:[rsp + 0x10], 0x3  
 315500: system.cpu T0 : @__libc_start_main+97.0  :   MOV_M_I : limm   t1d, 0x3 : IntAlu :  D=0x0000000000000003
 319500: global: Committing seq:73
 315500: system.cpu T0 : @__libc_start_main+97.1  :   MOV_M_I : st   t1d, DS:[rsp + 0x10] : MemWrite :  D=0x0000000000000003 A=0x7fffffffecf0
 315500: system.cpu T0 : @__libc_start_main+105    : cmp	DS:[rip + 0x2bde94], 0x6
 315500: system.cpu T0 : @__libc_start_main+105.0  :   CMP_P_I : limm   t2d, 0x6 : IntAlu :  D=0x0000000000000006
 315500: system.cpu T0 : @__libc_start_main+105.1  :   CMP_P_I : rdip   t7d, %ctrl153,  : IntAlu :  D=0x00000000004017d0
 320000: global: Committing seq:76
 320500: system.cpu.dcache: WriteReq [c2cf0:c2cf3] hit state: f (M) valid: 1 writable: 1 readable: 1 dirty: 1 tag: 18 at addr c2cf0
 355000: system.cpu.dcache: recvTimingResp: Handling response ReadExResp [c0640:c067f]
 355000: system.cpu.dcache: Block for addr 0xc0640 being updated in Cache
 355000: system.cpu.dcache: Block addr 0xc0640 (ns) moving from state 0 to state: 7 (E) valid: 1 writable: 1 readable: 1 dirty: 0 tag: 18
 315500: system.cpu T0 : @__libc_start_main+105.2  :   CMP_P_I : ld   t1d, DS:[t7 + 0x2bde94] : MemRead :  D=0x0000000000000007 A=0x6bf664
 358000: global: Committing seq:77
 315500: system.cpu T0 : @__libc_start_main+105.3  :   CMP_P_I : sub   t0d, t1d, t2d : IntAlu :  D=0x0000000000000000
 315500: system.cpu T0 : @__libc_start_main+112    : jle	0x21                  
 315500: system.cpu T0 : @__libc_start_main+112.0  :   JLE_I : rdip   t1, %ctrl153,  : IntAlu :  D=0x00000000004017d2
 316000: system.cpu T0 : @__libc_start_main+112.1  :   JLE_I : limm   t2, 0x21  : IntAlu :  D=0x0000000000000021
 358500: global: Committing seq:80
 316000: system.cpu T0 : @__libc_start_main+112.2  :   JLE_I : wrip   , t1, t2  : IntAlu : 
 316000: system.cpu T0 : @__libc_start_main+114    : mov	eax, 0x7              
 316000: system.cpu T0 : @__libc_start_main+114.0  :   MOV_R_I : limm   eax, 0x7 : IntAlu :  D=0x0000000000000007
 316000: system.cpu T0 : @__libc_start_main+119    : xor	ecx, ecx              
 316000: system.cpu T0 : @__libc_start_main+119.0  :   XOR_R_R : xor   ecx, ecx, ecx : IntAlu :  D=0x0000000000000000
 359000: global: Committing seq:83
 316000: system.cpu T0 : @__libc_start_main+121    :   CPUID    eax             : IntAlu :  D=0x0000000000000000
 359500: global: Committing seq:84
 362000: system.cpu.dcache: ReadReq [c0670:c0673] hit state: f (M) valid: 1 writable: 1 readable: 1 dirty: 1 tag: 18 at addr c0670
 316000: system.cpu T0 : @__libc_start_main+123    : mov	DS:[rip + 0x2bde97], eax
 316000: system.cpu T0 : @__libc_start_main+123.0  :   MOV_P_R : rdip   t7d, %ctrl153,  : IntAlu :  D=0x00000000004017e1
 362500: global: Committing seq:85
 316000: system.cpu T0 : @__libc_start_main+123.1  :   MOV_P_R : st   eax, DS:[t7 + 0x2bde97] : MemWrite :  D=0x0000000000000000 A=0x6bf678
 316000: system.cpu T0 : @__libc_start_main+129    : mov	DS:[rip + 0x2bde95], ebx
 316000: system.cpu T0 : @__libc_start_main+129.0  :   MOV_P_R : rdip   t7d, %ctrl153,  : IntAlu :  D=0x00000000004017e7
 316500: system.cpu T0 : @__libc_start_main+129.1  :   MOV_P_R : st   ebx, DS:[t7 + 0x2bde95] : MemWrite :  D=0x0000000001800000 A=0x6bf67c
 316500: system.cpu T0 : @__libc_start_main+135    : mov	DS:[rip + 0x2bde93], ecx
 316500: system.cpu T0 : @__libc_start_main+135.0  :   MOV_P_R : rdip   t7d, %ctrl153,  : IntAlu :  D=0x00000000004017ed
 316500: system.cpu T0 : @__libc_start_main+135.1  :   MOV_P_R : st   ecx, DS:[t7 + 0x2bde93] : MemWrite :  D=0x0000000000000000 A=0x6bf680
 316500: system.cpu T0 : @__libc_start_main+141    : mov	DS:[rip + 0x2bde91], edx
 316500: system.cpu T0 : @__libc_start_main+141.0  :   MOV_P_R : rdip   t7d, %ctrl153,  : IntAlu :  D=0x00000000004017f3
 316500: system.cpu T0 : @__libc_start_main+141.1  :   MOV_P_R : st   edx, DS:[t7 + 0x2bde91] : MemWrite :  D=0x0000000000000000 A=0x6bf684
 316500: system.cpu T0 : @__libc_start_main+147    : mov	esi, DS:[rip + 0x2bde77]
 316500: system.cpu T0 : @__libc_start_main+147.0  :   MOV_R_P : rdip   t7d, %ctrl153,  : IntAlu :  D=0x00000000004017f9
 363000: global: Committing seq:93
 363500: system.cpu.dcache: WriteReq [c0678:c067b] hit state: f (M) valid: 1 writable: 1 readable: 1 dirty: 1 tag: 18 at addr c0678
 363500: system.cpu.dcache: WriteReq [c067c:c067f] hit state: f (M) valid: 1 writable: 1 readable: 1 dirty: 1 tag: 18 at addr c067c
 363500: system.cpu.dcache: WriteReq [c0680:c0683] miss at addr c0680
 363500: system.cpu.dcache: WriteReq [c0684:c0687] miss at addr c0684
 363500: system.cpu.dcache: recvTimingReq coalescing MSHR for WriteReq [c0684:c0687]
 316500: system.cpu T0 : @__libc_start_main+147.1  :   MOV_R_P : ld   esi, DS:[t7 + 0x2bde77] : MemRead :  D=0x0000000000000000 A=0x6bf670
 316500: system.cpu T0 : @__libc_start_main+153    : test	eax, 0x8000000       
 316500: system.cpu T0 : @__libc_start_main+153.0  :   TEST_R_I : limm   t1d, 0x8000000 : IntAlu :  D=0x0000000008000000
 364500: system.cpu.dcache: sendMSHRQueuePacket: MSHR WriteReq [c0680:c0683]
 364500: system.cpu.dcache: createMissPacket: created ReadExReq [c0680:c06bf] from WriteReq [c0680:c0683]
 364500: global: Committing seq:95
 317000: system.cpu T0 : @__libc_start_main+153.1  :   TEST_R_I : and   t0d, esi, t1d : IntAlu :  D=0x0000000000000000
 365000: global: Committing seq:96
 403000: system.cpu.icache: recvTimingResp: Handling response ReadResp [1800:183f] IF
 403000: system.cpu.icache: Block for addr 0x1800 being updated in Cache
 403000: system.cpu.icache: Block addr 0x1800 (ns) moving from state 0 to state: 7 (E) valid: 1 writable: 1 readable: 1 dirty: 0 tag: 0
 404000: global: Looking up 4017ff (set:255)
 404000: global: Miss 4017ff
 404000: global: Recording 4017ff seq:99
 404500: global: Looking up 401812 (set:4)
 404500: global: Miss 401812
 404500: global: Recording 401812 seq:109
 405000: global: Looking up 40181f (set:7)
 405000: global: Miss 40181f
 405000: global: Recording 40181f seq:116
 405500: global: Looking up 401832 (set:12)
 405500: global: Miss 401832
 405500: global: Recording 401832 seq:124
 405500: system.cpu.icache: ReadReq [1840:187f] IF miss at addr 1840
 406500: system.cpu.icache: sendMSHRQueuePacket: MSHR ReadReq [1840:187f] IF
 406500: system.cpu.icache: createMissPacket: created ReadCleanReq [1840:187f] IF from ReadReq [1840:187f] IF
 408000: global: Squashing seq:99
 408000: global: Squashing series starting with sn:109
 408000: global: Allocating Target (seq: 99 br:4017ff set:255 target:(0x401930=>0x401938).(0=>1))
 408500: system.cpu.icache: ReadReq [1900:193f] IF miss at addr 1900
 404000: system.cpu T0 : @__libc_start_main+159    : jz	0x12b                  
 404000: system.cpu T0 : @__libc_start_main+159.0  :   JZ_I : rdip   t1, %ctrl153,  : IntAlu :  D=0x0000000000401805
 404000: system.cpu T0 : @__libc_start_main+159.1  :   JZ_I : limm   t2, 0x12b  : IntAlu :  D=0x000000000000012b
 404000: system.cpu T0 : @__libc_start_main+159.2  :   JZ_I : wrip   , t1, t2   : IntAlu : 
 409500: system.cpu.icache: sendMSHRQueuePacket: MSHR ReadReq [1900:193f] IF
 409500: system.cpu.icache: createMissPacket: created ReadCleanReq [1900:193f] IF from ReadReq [1900:193f] IF
 409500: global: Committing seq:99
 452000: system.cpu.dcache: recvTimingResp: Handling response ReadExResp [c0680:c06bf]
 452000: system.cpu.dcache: Block for addr 0xc0680 being updated in Cache
 452000: system.cpu.dcache: Block addr 0xc0680 (ns) moving from state 0 to state: 7 (E) valid: 1 writable: 1 readable: 1 dirty: 0 tag: 18
 501000: system.cpu.icache: recvTimingResp: Handling response ReadResp [1840:187f] IF
 501000: system.cpu.icache: Block for addr 0x1840 being updated in Cache
 501000: system.cpu.icache: Block addr 0x1840 (ns) moving from state 0 to state: 7 (E) valid: 1 writable: 1 readable: 1 dirty: 0 tag: 0
 506000: system.cpu.icache: recvTimingResp: Handling response ReadResp [1900:193f] IF
 506000: system.cpu.icache: Block for addr 0x1900 being updated in Cache
 506000: system.cpu.icache: Block addr 0x1900 (ns) moving from state 0 to state: 7 (E) valid: 1 writable: 1 readable: 1 dirty: 0 tag: 0
 507000: system.cpu.icache: ReadReq [1940:197f] IF miss at addr 1940
 508000: system.cpu.icache: sendMSHRQueuePacket: MSHR ReadReq [1940:197f] IF
 508000: system.cpu.icache: createMissPacket: created ReadCleanReq [1940:197f] IF from ReadReq [1940:197f] IF
 509500: system.cpu.dcache: ReadReq [c2cf0:c2cf3] hit state: f (M) valid: 1 writable: 1 readable: 1 dirty: 1 tag: 18 at addr c2cf0
 509500: system.cpu.dcache: ReadReq [c2d08:c2d0f] hit state: f (M) valid: 1 writable: 1 readable: 1 dirty: 1 tag: 18 at addr c2d08
 509500: system.cpu.dcache: ReadReq [c2d00:c2d07] hit state: f (M) valid: 1 writable: 1 readable: 1 dirty: 1 tag: 18 at addr c2d00
 507000: system.cpu T0 : @__libc_start_main+464    : mov	rax, DS:[rsp + 0x10]  
 507000: system.cpu T0 : @__libc_start_main+464.0  :   MOV_R_M : ld   eax, DS:[rsp + 0x10] : MemRead :  D=0x0000000000000003 A=0x7fffffffecf0
 512000: global: Committing seq:128
 507000: system.cpu T0 : @__libc_start_main+468    : mov	r8, DS:[rsp + 0x28]   
 507000: system.cpu T0 : @__libc_start_main+468.0  :   MOV_R_M : ld   r8, DS:[rsp + 0x28] : MemRead :  D=0x0000000000402010 A=0x7fffffffed08
 507000: system.cpu T0 : @__libc_start_main+473    : mov	rcx, DS:[rsp + 0x20]  
 507000: system.cpu T0 : @__libc_start_main+473.0  :   MOV_R_M : ld   rcx, DS:[rsp + 0x20] : MemRead :  D=0x0000000000401f80 A=0x7fffffffed00
 512500: global: Committing seq:130
 563000: system.cpu.icache: recvTimingResp: Handling response ReadResp [1940:197f] IF
 563000: system.cpu.icache: Block for addr 0x1940 being updated in Cache
 563000: system.cpu.icache: Block addr 0x1940 (ns) moving from state 0 to state: 7 (E) valid: 1 writable: 1 readable: 1 dirty: 0 tag: 0
 564500: global: Looking up 40196c (set:91)
 564500: global: Miss 40196c
 564500: global: Recording 40196c seq:146
 565000: global: Looking up 401977 (set:93)
 565000: global: Miss 401977
 565000: global: Recording 401977 seq:151
 565000: system.cpu.icache: ReadReq [1980:19bf] IF miss at addr 1980
 566000: system.cpu.icache: sendMSHRQueuePacket: MSHR ReadReq [1980:19bf] IF
 566000: system.cpu.icache: createMissPacket: created ReadCleanReq [1980:19bf] IF from ReadReq [1980:19bf] IF
 566500: system.cpu.dcache: ReadReq [c2cf8:c2cff] hit state: f (M) valid: 1 writable: 1 readable: 1 dirty: 1 tag: 18 at addr c2cf8
 566500: system.cpu.dcache: ReadReq [c2e50:c2e57] hit state: f (M) valid: 1 writable: 1 readable: 1 dirty: 1 tag: 18 at addr c2e50
 566500: system.cpu.dcache: ReadReq [c2cf4:c2cf7] hit state: f (M) valid: 1 writable: 1 readable: 1 dirty: 1 tag: 18 at addr c2cf4
 566500: system.cpu.dcache: ReadReq [c2ce8:c2cef] hit state: f (M) valid: 1 writable: 1 readable: 1 dirty: 1 tag: 18 at addr c2ce8
 568500: global: Squashing seq:146
 568500: global: Squashing series starting with sn:151
 568500: global: Allocating Target (seq: 146 br:40196c set:91 target:(0x401510=>0x401518).(0=>1))
 564000: system.cpu T0 : @__libc_start_main+478    : mov	rdx, DS:[rsp + 0x18]  
 564000: system.cpu T0 : @__libc_start_main+478.0  :   MOV_R_M : ld   rdx, DS:[rsp + 0x18] : MemRead :  D=0x00007fffffffee68 A=0x7fffffffecf8
 564000: system.cpu T0 : @__libc_start_main+483    : mov	DS:[rip + 0x2bdd17], eax
 564000: system.cpu T0 : @__libc_start_main+483.0  :   MOV_P_R : rdip   t7d, %ctrl153,  : IntAlu :  D=0x0000000000401949
 564000: system.cpu T0 : @__libc_start_main+483.1  :   MOV_P_R : st   eax, DS:[t7 + 0x2bdd17] : MemWrite :  D=0x0000000000000003 A=0x6bf660
 569000: global: Committing seq:133
 569000: system.cpu.icache: ReadReq [1500:153f] IF miss at addr 1500
 564000: system.cpu T0 : @__libc_start_main+489    : mov	rax, DS:[rsp + 0x170] 
 564000: system.cpu T0 : @__libc_start_main+489.0  :   MOV_R_M : ld   rax, DS:[rsp + 0x170] : MemRead :  D=0x00007fffffffee58 A=0x7fffffffee50
 564000: system.cpu T0 : @__libc_start_main+497    : mov	rsi, DS:[rsp + 0x14]  
 564000: system.cpu T0 : @__libc_start_main+497.0  :   MOV_R_M : ld   esi, DS:[rsp + 0x14] : MemRead :  D=0x0000000000000001 A=0x7fffffffecf4
 564000: system.cpu T0 : @__libc_start_main+501    : mov	rdi, DS:[rsp + 0x8]   
 564000: system.cpu T0 : @__libc_start_main+501.0  :   MOV_R_M : ld   rdi, DS:[rsp + 0x8] : MemRead :  D=0x00000000004014b2 A=0x7fffffffece8
 564000: system.cpu T0 : @__libc_start_main+506    : mov	DS:[rip + 0x2bdd37], r14d
 564000: system.cpu T0 : @__libc_start_main+506.0  :   MOV_P_R : rdip   t7d, %ctrl153,  : IntAlu :  D=0x0000000000401961
 564000: system.cpu T0 : @__libc_start_main+506.1  :   MOV_P_R : st   r14d, DS:[t7 + 0x2bdd37] : MemWrite :  D=0x0000000000000000 A=0x6bf698
 564500: system.cpu T0 : @__libc_start_main+513    : mov	DS:[rip + 0x2bdd34], r15d
 564500: system.cpu T0 : @__libc_start_main+513.0  :   MOV_P_R : rdip   t7d, %ctrl153,  : IntAlu :  D=0x0000000000401968
 564500: system.cpu T0 : @__libc_start_main+513.1  :   MOV_P_R : st   r15d, DS:[t7 + 0x2bdd34] : MemWrite :  D=0x0000000000000000 A=0x6bf69c
 569500: global: Committing seq:140
 569500: system.cpu.dcache: WriteReq [c0660:c0663] hit state: f (M) valid: 1 writable: 1 readable: 1 dirty: 1 tag: 18 at addr c0660
 564500: system.cpu T0 : @__libc_start_main+520    : mov	SS:[rsp], rax         
 564500: system.cpu T0 : @__libc_start_main+520.0  :   MOV_M_R : st   rax, SS:[rsp] : MemWrite :  D=0x00007fffffffee58 A=0x7fffffffece0
 564500: system.cpu T0 : @__libc_start_main+524    : call	0xfffffffffffffb9f   
 564500: system.cpu T0 : @__libc_start_main+524.0  :   CALL_NEAR_I : limm   t1, 0xfffffffffffffb9f : IntAlu :  D=0xfffffffffffffb9f
 564500: system.cpu T0 : @__libc_start_main+524.1  :   CALL_NEAR_I : rdip   t7, %ctrl153,  : IntAlu :  D=0x0000000000401971
 564500: system.cpu T0 : @__libc_start_main+524.2  :   CALL_NEAR_I : stis   t7, SS:[rsp + 0xfffffffffffffff8] : MemWrite :  D=0x0000000000401971 A=0x7fffffffecd8
 564500: system.cpu T0 : @__libc_start_main+524.3  :   CALL_NEAR_I : subi   rsp, rsp, 0x8 : IntAlu :  D=0x00007fffffffecd8
 564500: system.cpu T0 : @__libc_start_main+524.4  :   CALL_NEAR_I : wrip   , t7, t1 : IntAlu : 
 570000: system.cpu.icache: sendMSHRQueuePacket: MSHR ReadReq [1500:153f] IF
 570000: system.cpu.icache: createMissPacket: created ReadCleanReq [1500:153f] IF from ReadReq [1500:153f] IF
 570000: global: Committing seq:146
 570000: system.cpu.dcache: WriteReq [c0698:c069b] hit state: f (M) valid: 1 writable: 1 readable: 1 dirty: 1 tag: 18 at addr c0698
 570000: system.cpu.dcache: WriteReq [c069c:c069f] hit state: f (M) valid: 1 writable: 1 readable: 1 dirty: 1 tag: 18 at addr c069c
 570500: system.cpu.dcache: WriteReq [c2ce0:c2ce7] hit state: f (M) valid: 1 writable: 1 readable: 1 dirty: 1 tag: 18 at addr c2ce0
 570500: system.cpu.dcache: WriteReq [c2cd8:c2cdf] hit state: f (M) valid: 1 writable: 1 readable: 1 dirty: 1 tag: 18 at addr c2cd8
 621000: system.cpu.icache: recvTimingResp: Handling response ReadResp [1980:19bf] IF
 621000: system.cpu.icache: Block for addr 0x1980 being updated in Cache
 621000: system.cpu.icache: Block addr 0x1980 (ns) moving from state 0 to state: 7 (E) valid: 1 writable: 1 readable: 1 dirty: 0 tag: 0
 626000: system.cpu.icache: recvTimingResp: Handling response ReadResp [1500:153f] IF
 626000: system.cpu.icache: Block for addr 0x1500 being updated in Cache
 626000: system.cpu.icache: Block addr 0x1500 (ns) moving from state 0 to state: 7 (E) valid: 1 writable: 1 readable: 1 dirty: 0 tag: 0
 628000: system.cpu.icache: ReadReq [1540:157f] IF miss at addr 1540
 629000: system.cpu.icache: sendMSHRQueuePacket: MSHR ReadReq [1540:157f] IF
 629000: system.cpu.icache: createMissPacket: created ReadCleanReq [1540:157f] IF from ReadReq [1540:157f] IF
 627000: system.cpu T0 : @generic_start_main    : push	r14                  
 627000: system.cpu T0 : @generic_start_main.0  :   PUSH_R : stis   r14, SS:[rsp + 0xfffffffffffffff8] : MemWrite :  D=0x0000000000000000 A=0x7fffffffecd0
 627000: system.cpu T0 : @generic_start_main.1  :   PUSH_R : subi   rsp, rsp, 0x8 : IntAlu :  D=0x00007fffffffecd0
 627000: system.cpu T0 : @generic_start_main+2    : mov	eax, 0x6bdb90         
 627000: system.cpu T0 : @generic_start_main+2.0  :   MOV_R_I : limm   eax, 0x6bdb90 : IntAlu :  D=0x00000000006bdb90
 627000: system.cpu T0 : @generic_start_main+7    : mov	r14, r8               
 627000: system.cpu T0 : @generic_start_main+7.0  :   MOV_R_R : mov   r14, r14, r8 : IntAlu :  D=0x0000000000402010
 631000: global: Committing seq:155
 627000: system.cpu T0 : @generic_start_main+10    : push	r13                  
 627000: system.cpu T0 : @generic_start_main+10.0  :   PUSH_R : stis   r13, SS:[rsp + 0xfffffffffffffff8] : MemWrite :  D=0x0000000000000000 A=0x7fffffffecc8
 627000: system.cpu T0 : @generic_start_main+10.1  :   PUSH_R : subi   rsp, rsp, 0x8 : IntAlu :  D=0x00007fffffffecc8
 627000: system.cpu T0 : @generic_start_main+12    : mov	r13, rcx              
 627000: system.cpu T0 : @generic_start_main+12.0  :   MOV_R_R : mov   r13, r13, rcx : IntAlu :  D=0x0000000000401f80
 631500: global: Committing seq:158
 631500: system.cpu.dcache: WriteReq [c2cd0:c2cd7] hit state: f (M) valid: 1 writable: 1 readable: 1 dirty: 1 tag: 18 at addr c2cd0
 627000: system.cpu T0 : @generic_start_main+15    : push	r12                  
 627000: system.cpu T0 : @generic_start_main+15.0  :   PUSH_R : stis   r12, SS:[rsp + 0xfffffffffffffff8] : MemWrite :  D=0x0000000000000000 A=0x7fffffffecc0
 627500: system.cpu T0 : @generic_start_main+15.1  :   PUSH_R : subi   rsp, rsp, 0x8 : IntAlu :  D=0x00007fffffffecc0
 627500: system.cpu T0 : @generic_start_main+17    : mov	r12, r9               
 627500: system.cpu T0 : @generic_start_main+17.0  :   MOV_R_R : mov   r12, r12, r9 : IntAlu :  D=0x0000000000000000
 632000: global: Committing seq:161
 632000: system.cpu.dcache: WriteReq [c2cc8:c2ccf] hit state: f (M) valid: 1 writable: 1 readable: 1 dirty: 1 tag: 18 at addr c2cc8
 627500: system.cpu T0 : @generic_start_main+20    : push	rbp                  
 627500: system.cpu T0 : @generic_start_main+20.0  :   PUSH_R : stis   rbp, SS:[rsp + 0xfffffffffffffff8] : MemWrite :  D=0x0000000000000000 A=0x7fffffffecb8
 627500: system.cpu T0 : @generic_start_main+20.1  :   PUSH_R : subi   rsp, rsp, 0x8 : IntAlu :  D=0x00007fffffffecb8
 632500: global: Committing seq:163
 632500: system.cpu.dcache: WriteReq [c2cc0:c2cc7] hit state: f (M) valid: 1 writable: 1 readable: 1 dirty: 1 tag: 18 at addr c2cc0
 627500: system.cpu T0 : @generic_start_main+21    : push	rbx                  
 627500: system.cpu T0 : @generic_start_main+21.0  :   PUSH_R : stis   rbx, SS:[rsp + 0xfffffffffffffff8] : MemWrite :  D=0x0000000001800000 A=0x7fffffffecb0
 627500: system.cpu T0 : @generic_start_main+21.1  :   PUSH_R : subi   rsp, rsp, 0x8 : IntAlu :  D=0x00007fffffffecb0
 627500: system.cpu T0 : @generic_start_main+22    : sub	rax, 0x90             
 627500: system.cpu T0 : @generic_start_main+22.0  :   SUB_R_I : limm   t1, 0x90 : IntAlu :  D=0x0000000000000090
 633000: global: Committing seq:166
 633000: system.cpu.dcache: WriteReq [c2cb8:c2cbf] miss at addr c2cb8
 627500: system.cpu T0 : @generic_start_main+22.1  :   SUB_R_I : sub   rsp, rsp, t1 : IntAlu :  D=0x0000000000000000
 633500: global: Committing seq:167
 633500: system.cpu.dcache: WriteReq [c2cb0:c2cb7] miss at addr c2cb0
 633500: system.cpu.dcache: recvTimingReq coalescing MSHR for WriteReq [c2cb0:c2cb7]
 628000: system.cpu T0 : @generic_start_main+29    : test	rax, rax             
 628000: system.cpu T0 : @generic_start_main+29.0  :   TEST_R_R : and   t0, rax, rax : IntAlu :  D=0x0000000000000000
 628000: system.cpu T0 : @generic_start_main+32    : mov	DS:[rsp + 0x18], rdi  
 628000: system.cpu T0 : @generic_start_main+32.0  :   MOV_M_R : st   rdi, DS:[rsp + 0x18] : MemWrite :  D=0x00000000004014b2 A=0x7fffffffec38
 628000: system.cpu T0 : @generic_start_main+37    : mov	DS:[rsp + 0xc], rsi   
 628000: system.cpu T0 : @generic_start_main+37.0  :   MOV_M_R : st   esi, DS:[rsp + 0xc] : MemWrite :  D=0x0000000000000001 A=0x7fffffffec2c
 628000: system.cpu T0 : @generic_start_main+41    : mov	DS:[rsp + 0x10], rdx  
 628000: system.cpu T0 : @generic_start_main+41.0  :   MOV_M_R : st   rdx, DS:[rsp + 0x10] : MemWrite :  D=0x00007fffffffee68 A=0x7fffffffec30
 634000: system.cpu.dcache: sendMSHRQueuePacket: MSHR WriteReq [c2cb8:c2cbf]
 634000: system.cpu.dcache: createMissPacket: created ReadExReq [c2c80:c2cbf] from WriteReq [c2cb8:c2cbf]
 634000: global: Committing seq:171
 634500: system.cpu.dcache: WriteReq [c2c38:c2c3f] miss at addr c2c38
 634500: system.cpu.dcache: WriteReq [c2c2c:c2c2f] miss at addr c2c2c
 634500: system.cpu.dcache: recvTimingReq coalescing MSHR for WriteReq [c2c2c:c2c2f]
 634500: system.cpu.dcache: WriteReq [c2c30:c2c37] miss at addr c2c30
 634500: system.cpu.dcache: recvTimingReq coalescing MSHR for WriteReq [c2c30:c2c37]
 635500: system.cpu.dcache: sendMSHRQueuePacket: MSHR WriteReq [c2c38:c2c3f]
 635500: system.cpu.dcache: createMissPacket: created ReadExReq [c2c00:c2c3f] from WriteReq [c2c38:c2c3f]
 684000: system.cpu.icache: recvTimingResp: Handling response ReadResp [1540:157f] IF
 684000: system.cpu.icache: Block for addr 0x1540 being updated in Cache
 684000: system.cpu.icache: Block addr 0x1540 (ns) moving from state 0 to state: 7 (E) valid: 1 writable: 1 readable: 1 dirty: 0 tag: 0
 685000: global: Looking up 40153e (set:79)
 685000: global: Miss 40153e
 685000: global: Recording 40153e seq:174
 686000: system.cpu.icache: ReadReq [1580:15bf] IF miss at addr 1580
 687000: system.cpu.icache: sendMSHRQueuePacket: MSHR ReadReq [1580:15bf] IF
 687000: system.cpu.icache: createMissPacket: created ReadCleanReq [1580:15bf] IF from ReadReq [1580:15bf] IF
 688000: system.cpu.dcache: ReadReq [beb90:beb93] miss at addr beb90
 688000: system.cpu.dcache: ReadReq [c2c2c:c2c2f] miss at addr c2c2c
 688000: system.cpu.dcache: recvTimingReq coalescing MSHR for ReadReq [c2c2c:c2c2f]
 688000: system.cpu.dcache: ReadReq [c2c30:c2c37] miss at addr c2c30
 688000: system.cpu.dcache: recvTimingReq coalescing MSHR for ReadReq [c2c30:c2c37]
 688000: system.cpu.dcache: ReadReq [c2ce0:c2ce7] hit state: f (M) valid: 1 writable: 1 readable: 1 dirty: 1 tag: 18 at addr c2ce0
 685000: system.cpu T0 : @generic_start_main+46    : jz	0x1e2                  
 685000: system.cpu T0 : @generic_start_main+46.0  :   JZ_I : rdip   t1, %ctrl153,  : IntAlu :  D=0x0000000000401544
 685000: system.cpu T0 : @generic_start_main+46.1  :   JZ_I : limm   t2, 0x1e2  : IntAlu :  D=0x00000000000001e2
 689000: system.cpu.dcache: sendMSHRQueuePacket: MSHR ReadReq [beb90:beb93]
 689000: system.cpu.dcache: createMissPacket: created ReadSharedReq [beb80:bebbf] from ReadReq [beb90:beb93]
 689000: system.cpu.dcache: recvTimingResp: Handling response ReadExResp [c2c80:c2cbf]
 689000: system.cpu.dcache: Block for addr 0xc2c80 being updated in Cache
 689000: system.cpu.dcache: Block addr 0xc2c80 (ns) moving from state 0 to state: 7 (E) valid: 1 writable: 1 readable: 1 dirty: 0 tag: 18
 689000: global: Committing seq:173
 685000: system.cpu T0 : @generic_start_main+46.2  :   JZ_I : wrip   , t1, t2   : IntAlu : 
 685000: system.cpu T0 : @generic_start_main+52    : mov	ecx, DS:[rip + 0x2bc646]
 685000: system.cpu T0 : @generic_start_main+52.0  :   MOV_R_P : rdip   t7d, %ctrl153,  : IntAlu :  D=0x000000000040154a
 689500: global: Committing seq:175
 695000: system.cpu.dcache: recvTimingResp: Handling response ReadExResp [c2c00:c2c3f]
 695000: system.cpu.dcache: Block for addr 0xc2c00 being updated in Cache
 695000: system.cpu.dcache: Block addr 0xc2c00 (ns) moving from state 0 to state: 7 (E) valid: 1 writable: 1 readable: 1 dirty: 0 tag: 18
 742000: system.cpu.icache: recvTimingResp: Handling response ReadResp [1580:15bf] IF
 742000: system.cpu.icache: Block for addr 0x1580 being updated in Cache
 742000: system.cpu.icache: Block addr 0x1580 (ns) moving from state 0 to state: 7 (E) valid: 1 writable: 1 readable: 1 dirty: 0 tag: 0
 743000: global: Looking up 401589 (set:98)
 743000: global: Miss 401589
 743000: global: Recording 401589 seq:200
 744000: global: Looking up 401598 (set:102)
 744000: global: Miss 401598
 744000: global: Recording 401598 seq:211
 744500: global: Looking up 4015a1 (set:104)
 744500: global: Miss 4015a1
 744500: global: Recording 4015a1 seq:220
 745000: global: Looking up 4015af (set:107)
 745000: global: Miss 4015af
 745000: global: Recording 4015af seq:226
 745000: system.cpu.icache: ReadReq [15c0:15ff] IF miss at addr 15c0
 746000: system.cpu.icache: sendMSHRQueuePacket: MSHR ReadReq [15c0:15ff] IF
 746000: system.cpu.icache: createMissPacket: created ReadCleanReq [15c0:15ff] IF from ReadReq [15c0:15ff] IF
 746500: system.cpu.dcache: ReadReq [c2e78:c2e7f] hit state: f (M) valid: 1 writable: 1 readable: 1 dirty: 1 tag: 18 at addr c2e78
 746500: system.cpu.dcache: ReadReq [beba0:beba3] miss at addr beba0
 746500: system.cpu.dcache: recvTimingReq coalescing MSHR for ReadReq [beba0:beba3]
 747500: global: Squashing seq:205
 747500: global: Squashing series starting with sn:211
 748000: system.cpu.icache: ReadReq [12e40:12e7f] IF miss at addr 12e40
 749000: system.cpu.icache: sendMSHRQueuePacket: MSHR ReadReq [12e40:12e7f] IF
 749000: system.cpu.icache: createMissPacket: created ReadCleanReq [12e40:12e7f] IF from ReadReq [12e40:12e7f] IF
 752000: system.cpu.dcache: recvTimingResp: Handling response ReadResp [beb80:bebbf]
 752000: system.cpu.dcache: Block for addr 0xbeb80 being updated in Cache
 752000: system.cpu.dcache: Block addr 0xbeb80 (ns) moving from state 0 to state: 7 (E) valid: 1 writable: 1 readable: 1 dirty: 0 tag: 17
 685000: system.cpu T0 : @generic_start_main+52.1  :   MOV_R_P : ld   ecx, DS:[t7 + 0x2bc646] : MemRead :  D=0x0000000000000001 A=0x6bdb90
 685000: system.cpu T0 : @generic_start_main+58    : xor	eax, eax              
 685000: system.cpu T0 : @generic_start_main+58.0  :   XOR_R_R : xor   eax, eax, eax : IntAlu :  D=0x0000000000000000
 754500: global: Committing seq:177
 685000: system.cpu T0 : @generic_start_main+60    : test	ecx, ecx             
 685000: system.cpu T0 : @generic_start_main+60.0  :   TEST_R_R : and   t0d, ecx, ecx : IntAlu :  D=0x0000000000000000
 755000: global: Committing seq:178
 685000: system.cpu T0 : @generic_start_main+62    : setz	al                   
 685000: system.cpu T0 : @generic_start_main+62.0  :   SETZ_R : movi   al, al, 0x1 : IntAlu :  D=0x0000000000000000
 755500: global: Committing seq:179
 685500: system.cpu T0 : @generic_start_main+62.1  :   SETZ_R : movi   al, al, 0 : IntAlu :  D=0x0000000000000000
 685500: system.cpu T0 : @generic_start_main+65    : mov	DS:[rip + 0x2bc649], eax
 685500: system.cpu T0 : @generic_start_main+65.0  :   MOV_P_R : rdip   t7d, %ctrl153,  : IntAlu :  D=0x0000000000401557
 756000: global: Committing seq:181
 685500: system.cpu T0 : @generic_start_main+65.1  :   MOV_P_R : st   eax, DS:[t7 + 0x2bc649] : MemWrite :  D=0x0000000000000000 A=0x6bdba0
 685500: system.cpu T0 : @generic_start_main+71    : movsxd	rax, DS:[rsp + 0xc]
 685500: system.cpu T0 : @generic_start_main+71.0  :   MOVSXD_R_M : ld   t1d, DS:[rsp + 0xc] : MemRead :  D=0x0000000000000001 A=0x7fffffffec2c
 685500: system.cpu T0 : @generic_start_main+71.1  :   MOVSXD_R_M : sexti   rax, t1, 0x1f : IntAlu :  D=0x0000000000000001
 685500: system.cpu T0 : @generic_start_main+76    : mov	rcx, DS:[rsp + 0x10]  
 685500: system.cpu T0 : @generic_start_main+76.0  :   MOV_R_M : ld   rcx, DS:[rsp + 0x10] : MemRead :  D=0x00007fffffffee68 A=0x7fffffffec30
 685500: system.cpu T0 : @generic_start_main+81    : mov	rdx, DS:[rsp + 0xc0]  
 685500: system.cpu T0 : @generic_start_main+81.0  :   MOV_R_M : ld   rdx, DS:[rsp + 0xc0] : MemRead :  D=0x00007fffffffee58 A=0x7fffffffece0
 685500: system.cpu T0 : @generic_start_main+89    : lea	rdi, DS:[8*rax + rcx + 0x8]
 685500: system.cpu T0 : @generic_start_main+89.0  :   LEA_R_M : lea   rdi, DS:[8*rax + rcx + 0x8] : IntAlu :  D=0x00007fffffffee78
 686000: system.cpu T0 : @generic_start_main+94    : mov	DS:[rip + 0x2bba13], rdx
 686000: system.cpu T0 : @generic_start_main+94.0  :   MOV_P_R : rdip   t7, %ctrl153,  : IntAlu :  D=0x0000000000401575
 686000: system.cpu T0 : @generic_start_main+94.1  :   MOV_P_R : st   rdx, DS:[t7 + 0x2bba13] : MemWrite :  D=0x00007fffffffee58 A=0x6bcf88
 756500: global: Committing seq:189
 686000: system.cpu T0 : @generic_start_main+101    : mov	DS:[rip + 0x2bdfdc], rdi
 686000: system.cpu T0 : @generic_start_main+101.0  :   MOV_P_R : rdip   t7, %ctrl153,  : IntAlu :  D=0x000000000040157c
 686000: system.cpu T0 : @generic_start_main+101.1  :   MOV_P_R : st   rdi, DS:[t7 + 0x2bdfdc] : MemWrite :  D=0x00007fffffffee78 A=0x6bf558
 686000: system.cpu T0 : @generic_start_main+108    : hint	                     
 686000: system.cpu T0 : @generic_start_main+108.0  :   HINT_NOP : fault   No Fault : No_OpClass : 
 743000: system.cpu T0 : @generic_start_main+112    : add	rax, 0x8              
 743000: system.cpu T0 : @generic_start_main+112.0  :   ADD_R_I : limm   t1, 0x8 : IntAlu :  D=0x0000000000000008
 743000: system.cpu T0 : @generic_start_main+112.1  :   ADD_R_I : add   rdi, rdi, t1 : IntAlu :  D=0x0000000000000000
 743000: system.cpu T0 : @generic_start_main+116    : cmp	DS:[rdi + 0xfffffffffffffff8], 0
 743000: system.cpu T0 : @generic_start_main+116.0  :   CMP_M_I : limm   t2, 0   : IntAlu :  D=0x0000000000000000
 743000: system.cpu T0 : @generic_start_main+116.1  :   CMP_M_I : ld   t1, DS:[rdi + 0xfffffffffffffff8] : MemRead :  D=0x0000000000000000 A=0x7fffffffee78
 743000: system.cpu T0 : @generic_start_main+116.2  :   CMP_M_I : sub   t0, t1, t2 : IntAlu :  D=0x0000000000000000
 757000: global: Committing seq:197
 757000: system.cpu.dcache: WriteReq [beba0:beba3] hit state: 7 (E) valid: 1 writable: 1 readable: 1 dirty: 0 tag: 17 at addr beba0
 757000: system.cpu.dcache: WriteReq [bdf88:bdf8f] miss at addr bdf88
 743000: system.cpu T0 : @generic_start_main+121    : jnz	0xfffffffffffffff5    
 743000: system.cpu T0 : @generic_start_main+121.0  :   JNZ_I : rdip   t1, %ctrl153,  : IntAlu :  D=0x000000000040158b
 743000: system.cpu T0 : @generic_start_main+121.1  :   JNZ_I : limm   t2, 0xfffffffffffffff5 : IntAlu :  D=0xfffffffffffffff5
 743000: system.cpu T0 : @generic_start_main+121.2  :   JNZ_I : wrip   , t1, t2  : IntAlu : 
 743500: system.cpu T0 : @generic_start_main+123    : call	0x118c0              
 743500: system.cpu T0 : @generic_start_main+123.0  :   CALL_NEAR_I : limm   t1, 0x118c0 : IntAlu :  D=0x00000000000118c0
 743500: system.cpu T0 : @generic_start_main+123.1  :   CALL_NEAR_I : rdip   t7, %ctrl153,  : IntAlu :  D=0x0000000000401590
 743500: system.cpu T0 : @generic_start_main+123.2  :   CALL_NEAR_I : stis   t7, SS:[rsp + 0xfffffffffffffff8] : MemWrite :  D=0x0000000000401590 A=0x7fffffffec18
 743500: system.cpu T0 : @generic_start_main+123.3  :   CALL_NEAR_I : subi   rsp, rsp, 0x8 : IntAlu :  D=0x00007fffffffec18
 743500: system.cpu T0 : @generic_start_main+123.4  :   CALL_NEAR_I : wrip   , t7, t1 : IntAlu : 
 757500: global: Committing seq:205
 757500: system.cpu.dcache: WriteReq [c0558:c055f] miss at addr c0558
 758000: system.cpu.dcache: sendMSHRQueuePacket: MSHR WriteReq [bdf88:bdf8f]
 758000: system.cpu.dcache: createMissPacket: created ReadExReq [bdf80:bdfbf] from WriteReq [bdf88:bdf8f]
 758000: system.cpu.dcache: WriteReq [c2c18:c2c1f] hit state: f (M) valid: 1 writable: 1 readable: 1 dirty: 1 tag: 18 at addr c2c18
 758500: system.cpu.dcache: sendMSHRQueuePacket: MSHR WriteReq [c0558:c055f]
 758500: system.cpu.dcache: createMissPacket: created ReadExReq [c0540:c057f] from WriteReq [c0558:c055f]
 759000: system.cpu.dcache: sendMSHRQueuePacket: MSHR WriteReq [c0558:c055f]
 759000: system.cpu.dcache: createMissPacket: created ReadExReq [c0540:c057f] from WriteReq [c0558:c055f]
 801000: system.cpu.icache: recvTimingResp: Handling response ReadResp [15c0:15ff] IF
 801000: system.cpu.icache: Block for addr 0x15c0 being updated in Cache
 801000: system.cpu.icache: Block addr 0x15c0 (ns) moving from state 0 to state: 7 (E) valid: 1 writable: 1 readable: 1 dirty: 0 tag: 0
 818000: system.cpu.icache: recvTimingResp: Handling response ReadResp [12e40:12e7f] IF
 818000: system.cpu.icache: Block for addr 0x12e40 being updated in Cache
 818000: system.cpu.icache: Block addr 0x12e40 (ns) moving from state 0 to state: 7 (E) valid: 1 writable: 1 readable: 1 dirty: 0 tag: 9
 819000: global: Looking up 412e5d (set:151)
 819000: global: Miss 412e5d
 819000: global: Recording 412e5d seq:237
 820000: system.cpu.icache: ReadReq [12e80:12ebf] IF miss at addr 12e80
 821000: system.cpu.icache: sendMSHRQueuePacket: MSHR ReadReq [12e80:12ebf] IF
 821000: system.cpu.icache: createMissPacket: created ReadCleanReq [12e80:12ebf] IF from ReadReq [12e80:12ebf] IF
 821500: system.cpu.dcache: ReadReq [c2e80:c2e87] miss at addr c2e80
 822500: system.cpu.dcache: sendMSHRQueuePacket: MSHR ReadReq [c2e80:c2e87]
 822500: system.cpu.dcache: createMissPacket: created ReadSharedReq [c2e80:c2ebf] from ReadReq [c2e80:c2e87]
 822500: system.cpu.dcache: ReadReq [c1628:c162f] miss at addr c1628
 822500: system.cpu.dcache: Blocking for cause 0, mask=1
 823500: system.cpu.dcache: sendMSHRQueuePacket: MSHR ReadReq [c1628:c162f]
 823500: system.cpu.dcache: createMissPacket: created ReadSharedReq [c1600:c163f] from ReadReq [c1628:c162f]
 824000: system.cpu.dcache: sendMSHRQueuePacket: MSHR ReadReq [c1628:c162f]
 824000: system.cpu.dcache: createMissPacket: created ReadSharedReq [c1600:c163f] from ReadReq [c1628:c162f]
 824000: system.cpu.dcache: recvTimingResp: Handling response ReadExResp [bdf80:bdfbf]
 824000: system.cpu.dcache: Block for addr 0xbdf80 being updated in Cache
 824000: system.cpu.dcache: Block addr 0xbdf80 (ns) moving from state 0 to state: 7 (E) valid: 1 writable: 1 readable: 1 dirty: 0 tag: 17
 824000: system.cpu.dcache: Unblocking for cause 0, mask=0
 825000: system.cpu.dcache: ReadReq [beb80:beb87] hit state: f (M) valid: 1 writable: 1 readable: 1 dirty: 1 tag: 17 at addr beb80
 825000: system.cpu.dcache: ReadReq [bdf98:bdf9b] hit state: f (M) valid: 1 writable: 1 readable: 1 dirty: 1 tag: 17 at addr bdf98
 836000: system.cpu.dcache: recvTimingResp: Handling response ReadExResp [c0540:c057f]
 836000: system.cpu.dcache: Block for addr 0xc0540 being updated in Cache
 836000: system.cpu.dcache: Block addr 0xc0540 (ns) moving from state 0 to state: 7 (E) valid: 1 writable: 1 readable: 1 dirty: 0 tag: 18
 876000: system.cpu.icache: recvTimingResp: Handling response ReadResp [12e80:12ebf] IF
 876000: system.cpu.icache: Block for addr 0x12e80 being updated in Cache
 876000: system.cpu.icache: Block addr 0x12e80 (ns) moving from state 0 to state: 7 (E) valid: 1 writable: 1 readable: 1 dirty: 0 tag: 9
 878000: system.cpu.icache: ReadReq [12ec0:12eff] IF miss at addr 12ec0
 879000: system.cpu.icache: sendMSHRQueuePacket: MSHR ReadReq [12ec0:12eff] IF
 879000: system.cpu.icache: createMissPacket: created ReadCleanReq [12ec0:12eff] IF from ReadReq [12ec0:12eff] IF
 880000: system.cpu.dcache: ReadReq [c1710:c1713] miss at addr c1710
 880000: system.cpu.dcache: ReadReq [c1620:c1623] miss at addr c1620
 880000: system.cpu.dcache: recvTimingReq coalescing MSHR for ReadReq [c1620:c1623]
 880000: system.cpu.dcache: ReadReq [bdf80:bdf87] hit state: f (M) valid: 1 writable: 1 readable: 1 dirty: 1 tag: 17 at addr bdf80
 880500: system.cpu.dcache: ReadReq [c1600:c1607] miss at addr c1600
 880500: system.cpu.dcache: recvTimingReq coalescing MSHR for ReadReq [c1600:c1607]
 880500: system.cpu.dcache: ReadReq [c1640:c1647] miss at addr c1640
 880500: system.cpu.dcache: Blocking for cause 0, mask=1
 881000: system.cpu.dcache: sendMSHRQueuePacket: MSHR ReadReq [c1710:c1713]
 881000: system.cpu.dcache: createMissPacket: created ReadSharedReq [c1700:c173f] from ReadReq [c1710:c1713]
 881500: system.cpu.dcache: sendMSHRQueuePacket: MSHR ReadReq [c1640:c1647]
 881500: system.cpu.dcache: createMissPacket: created ReadSharedReq [c1640:c167f] from ReadReq [c1640:c1647]
 882000: system.cpu.dcache: sendMSHRQueuePacket: MSHR ReadReq [c1640:c1647]
 882000: system.cpu.dcache: createMissPacket: created ReadSharedReq [c1640:c167f] from ReadReq [c1640:c1647]
 884000: system.cpu.dcache: recvTimingResp: Handling response ReadResp [c2e80:c2ebf]
 884000: system.cpu.dcache: Block for addr 0xc2e80 being updated in Cache
 884000: system.cpu.dcache: Block addr 0xc2e80 (ns) moving from state 0 to state: 7 (E) valid: 1 writable: 1 readable: 1 dirty: 0 tag: 18
 884000: system.cpu.dcache: Unblocking for cause 0, mask=0
 885000: system.cpu.dcache: ReadReq [c0640:c0647] hit state: f (M) valid: 1 writable: 1 readable: 1 dirty: 1 tag: 18 at addr c0640
 885000: system.cpu.dcache: ReadReq [c0630:c0637] miss at addr c0630
 885000: system.cpu.dcache: Blocking for cause 0, mask=1
 886000: system.cpu.dcache: sendMSHRQueuePacket: MSHR ReadReq [c0630:c0637]
 886000: system.cpu.dcache: createMissPacket: created ReadSharedReq [c0600:c063f] from ReadReq [c0630:c0637]
 819000: system.cpu T0 : @_dl_aux_init    : mov	rax, DS:[rdi]         
 819000: system.cpu T0 : @_dl_aux_init.0  :   MOV_R_M : ld   rax, DS:[rdi] : MemRead :  D=0x0000000000000021 A=0x7fffffffee80
 819000: system.cpu T0 : @_dl_aux_init+3    : mov	DS:[rip + 0x2ad77e], rdi
 819000: system.cpu T0 : @_dl_aux_init+3.0  :   MOV_P_R : rdip   t7, %ctrl153,  : IntAlu :  D=0x0000000000412e5a
 819000: system.cpu T0 : @_dl_aux_init+3.1  :   MOV_P_R : st   rdi, DS:[t7 + 0x2ad77e] : MemWrite :  D=0x00007fffffffee80 A=0x6c05d8
 886500: global: Committing seq:233
 819000: system.cpu T0 : @_dl_aux_init+10    : test	rax, rax             
 819000: system.cpu T0 : @_dl_aux_init+10.0  :   TEST_R_R : and   t0, rax, rax : IntAlu :  D=0x0000000000000000
 819000: system.cpu T0 : @_dl_aux_init+13    : jz	0xfd                   
 819000: system.cpu T0 : @_dl_aux_init+13.0  :   JZ_I : rdip   t1, %ctrl153,  : IntAlu :  D=0x0000000000412e63
 819000: system.cpu T0 : @_dl_aux_init+13.1  :   JZ_I : limm   t2, 0xfd   : IntAlu :  D=0x00000000000000fd
 887000: global: Committing seq:236
 819000: system.cpu T0 : @_dl_aux_init+13.2  :   JZ_I : wrip   , t1, t2   : IntAlu : 
 819000: system.cpu T0 : @_dl_aux_init+19    : push	r15                  
 819000: system.cpu T0 : @_dl_aux_init+19.0  :   PUSH_R : stis   r15, SS:[rsp + 0xfffffffffffffff8] : MemWrite :  D=0x0000000000000000 A=0x7fffffffec10
 819500: system.cpu T0 : @_dl_aux_init+19.1  :   PUSH_R : subi   rsp, rsp, 0x8 : IntAlu :  D=0x00007fffffffec10
 819500: system.cpu T0 : @_dl_aux_init+21    : mov	r11, DS:[rip + 0x2ad7bc]
 819500: system.cpu T0 : @_dl_aux_init+21.0  :   MOV_R_P : rdip   t7, %ctrl153,  : IntAlu :  D=0x0000000000412e6c
 887500: global: Committing seq:240
 889000: system.cpu.dcache: recvTimingResp: Handling response ReadResp [c1600:c163f]
 889000: system.cpu.dcache: Block for addr 0xc1600 being updated in Cache
 889000: system.cpu.dcache: Block addr 0xc1600 (ns) moving from state 0 to state: 7 (E) valid: 1 writable: 1 readable: 1 dirty: 0 tag: 18
 889000: system.cpu.dcache: Unblocking for cause 0, mask=0
 889001: system.cpu.dcache: WriteReq [c15d8:c15df] miss at addr c15d8
 889001: system.cpu.dcache: Blocking for cause 0, mask=1
 890500: system.cpu.dcache: sendMSHRQueuePacket: MSHR WriteReq [c15d8:c15df]
 890500: system.cpu.dcache: createMissPacket: created ReadExReq [c15c0:c15ff] from WriteReq [c15d8:c15df]
 819500: system.cpu T0 : @_dl_aux_init+21.1  :   MOV_R_P : ld   r11, DS:[t7 + 0x2ad7bc] : MemRead :  D=0x0000000000000000 A=0x6c0628
 819500: system.cpu T0 : @_dl_aux_init+28    : xor	esi, esi              
 819500: system.cpu T0 : @_dl_aux_init+28.0  :   XOR_R_R : xor   esi, esi, esi : IntAlu :  D=0x0000000000000000
 819500: system.cpu T0 : @_dl_aux_init+30    : mov	r15, DS:[rip + 0x2aad0b]
 819500: system.cpu T0 : @_dl_aux_init+30.0  :   MOV_R_P : rdip   t7, %ctrl153,  : IntAlu :  D=0x0000000000412e75
 819500: system.cpu T0 : @_dl_aux_init+30.1  :   MOV_R_P : ld   r15, DS:[t7 + 0x2aad0b] : MemRead :  D=0x0000000000001000 A=0x6bdb80
 819500: system.cpu T0 : @_dl_aux_init+37    : mov	r10d, DS:[rip + 0x2aa11c]
 819500: system.cpu T0 : @_dl_aux_init+37.0  :   MOV_R_P : rdip   t7d, %ctrl153,  : IntAlu :  D=0x0000000000412e7c
 819500: system.cpu T0 : @_dl_aux_init+37.1  :   MOV_R_P : ld   r10d, DS:[t7 + 0x2aa11c] : MemRead :  D=0x0000000000000001 A=0x6bcf98
 820000: system.cpu T0 : @_dl_aux_init+44    : xor	ecx, ecx              
 820000: system.cpu T0 : @_dl_aux_init+44.0  :   XOR_R_R : xor   ecx, ecx, ecx : IntAlu :  D=0x0000000000000000
 820000: system.cpu T0 : @_dl_aux_init+46    : push	r14                  
 820000: system.cpu T0 : @_dl_aux_init+46.0  :   PUSH_R : stis   r14, SS:[rsp + 0xfffffffffffffff8] : MemWrite :  D=0x0000000000402010 A=0x7fffffffec08
 891500: global: Committing seq:248
 820000: system.cpu T0 : @_dl_aux_init+46.1  :   PUSH_R : subi   rsp, rsp, 0x8 : IntAlu :  D=0x00007fffffffec08
 877000: system.cpu T0 : @_dl_aux_init+48    : mov	r9d, DS:[rip + 0x2ad889]
 877000: system.cpu T0 : @_dl_aux_init+48.0  :   MOV_R_P : rdip   t7d, %ctrl153,  : IntAlu :  D=0x0000000000412e87
 892000: global: Committing seq:250
 934000: system.cpu.icache: recvTimingResp: Handling response ReadResp [12ec0:12eff] IF
 934000: system.cpu.icache: Block for addr 0x12ec0 being updated in Cache
 934000: system.cpu.icache: Block addr 0x12ec0 (ns) moving from state 0 to state: 7 (E) valid: 1 writable: 1 readable: 1 dirty: 0 tag: 9
 935000: global: Looking up 412ec8 (set:178)
 935000: global: Miss 412ec8
 935000: global: Recording 412ec8 seq:280
 936000: global: Looking up 412eea (set:186)
 936000: global: Miss 412eea
 936000: global: Recording 412eea seq:292
 936500: system.cpu.icache: ReadReq [12f00:12f3f] IF miss at addr 12f00
 937500: system.cpu.icache: sendMSHRQueuePacket: MSHR ReadReq [12f00:12f3f] IF
 937500: system.cpu.icache: createMissPacket: created ReadCleanReq [12f00:12f3f] IF from ReadReq [12f00:12f3f] IF
 942000: system.cpu.dcache: recvTimingResp: Handling response ReadResp [c1700:c173f]
 942000: system.cpu.dcache: Block for addr 0xc1700 being updated in Cache
 942000: system.cpu.dcache: Block addr 0xc1700 (ns) moving from state 0 to state: 7 (E) valid: 1 writable: 1 readable: 1 dirty: 0 tag: 18
 942000: system.cpu.dcache: Unblocking for cause 0, mask=0
 942001: system.cpu.dcache: WriteReq [c2c10:c2c17] hit state: f (M) valid: 1 writable: 1 readable: 1 dirty: 1 tag: 18 at addr c2c10
 942500: system.cpu.dcache: WriteReq [c2c08:c2c0f] hit state: f (M) valid: 1 writable: 1 readable: 1 dirty: 1 tag: 18 at addr c2c08
 943000: system.cpu.dcache: ReadReq [95650:95657] miss at addr 95650
 943000: system.cpu.dcache: Blocking for cause 0, mask=1
 944000: system.cpu.dcache: sendMSHRQueuePacket: MSHR ReadReq [95650:95657]
 944000: system.cpu.dcache: createMissPacket: created ReadSharedReq [95640:9567f] from ReadReq [95650:95657]
 877000: system.cpu T0 : @_dl_aux_init+48.1  :   MOV_R_P : ld   r9d, DS:[t7 + 0x2ad889] : MemRead :  D=0x0000000000000000 A=0x6c0710
 877000: system.cpu T0 : @_dl_aux_init+55    : xor	edx, edx              
 877000: system.cpu T0 : @_dl_aux_init+55.0  :   XOR_R_R : xor   edx, edx, edx : IntAlu :  D=0x0000000000000000
 877000: system.cpu T0 : @_dl_aux_init+57    : mov	r14d, DS:[rip + 0x2ad790]
 877000: system.cpu T0 : @_dl_aux_init+57.0  :   MOV_R_P : rdip   t7d, %ctrl153,  : IntAlu :  D=0x0000000000412e90
 877000: system.cpu T0 : @_dl_aux_init+57.1  :   MOV_R_P : ld   r14d, DS:[t7 + 0x2ad790] : MemRead :  D=0x0000000000000000 A=0x6c0620
 877000: system.cpu T0 : @_dl_aux_init+64    : mov	r8, DS:[rip + 0x2aa0e9]
 877000: system.cpu T0 : @_dl_aux_init+64.0  :   MOV_R_P : rdip   t7, %ctrl153,  : IntAlu :  D=0x0000000000412e97
 877000: system.cpu T0 : @_dl_aux_init+64.1  :   MOV_R_P : ld   r8, DS:[t7 + 0x2aa0e9] : MemRead :  D=0x0000000000000000 A=0x6bcf80
 877000: system.cpu T0 : @_dl_aux_init+71    : push	r13                  
 877000: system.cpu T0 : @_dl_aux_init+71.0  :   PUSH_R : stis   r13, SS:[rsp + 0xfffffffffffffff8] : MemWrite :  D=0x0000000000401f80 A=0x7fffffffec00
 877500: system.cpu T0 : @_dl_aux_init+71.1  :   PUSH_R : subi   rsp, rsp, 0x8 : IntAlu :  D=0x00007fffffffec00
 944500: global: Committing seq:258
 877500: system.cpu T0 : @_dl_aux_init+73    : mov	r13, DS:[rip + 0x2ad760]
 877500: system.cpu T0 : @_dl_aux_init+73.0  :   MOV_R_P : rdip   t7, %ctrl153,  : IntAlu :  D=0x0000000000412ea0
 877500: system.cpu T0 : @_dl_aux_init+73.1  :   MOV_R_P : ld   r13, DS:[t7 + 0x2ad760] : MemRead :  D=0x0000000000000000 A=0x6c0600
 877500: system.cpu T0 : @_dl_aux_init+80    : push	r12                  
 877500: system.cpu T0 : @_dl_aux_init+80.0  :   PUSH_R : stis   r12, SS:[rsp + 0xfffffffffffffff8] : MemWrite :  D=0x0000000000000000 A=0x7fffffffebf8
 877500: system.cpu T0 : @_dl_aux_init+80.1  :   PUSH_R : subi   rsp, rsp, 0x8 : IntAlu :  D=0x00007fffffffebf8
 877500: system.cpu T0 : @_dl_aux_init+82    : mov	r12, DS:[rip + 0x2ad797]
 877500: system.cpu T0 : @_dl_aux_init+82.0  :   MOV_R_P : rdip   t7, %ctrl153,  : IntAlu :  D=0x0000000000412ea9
 945000: global: Committing seq:263
 947000: system.cpu.dcache: recvTimingResp: Handling response ReadResp [c1640:c167f]
 947000: system.cpu.dcache: Block for addr 0xc1640 being updated in Cache
 947000: system.cpu.dcache: Block addr 0xc1640 (ns) moving from state 0 to state: 7 (E) valid: 1 writable: 1 readable: 1 dirty: 0 tag: 18
 947000: system.cpu.dcache: Unblocking for cause 0, mask=0
 947001: system.cpu.dcache: WriteReq [c2c00:c2c07] hit state: f (M) valid: 1 writable: 1 readable: 1 dirty: 1 tag: 18 at addr c2c00
 947500: system.cpu.dcache: WriteReq [c2bf8:c2bff] miss at addr c2bf8
 947500: system.cpu.dcache: Blocking for cause 0, mask=1
 948500: system.cpu.dcache: sendMSHRQueuePacket: MSHR WriteReq [c2bf8:c2bff]
 948500: system.cpu.dcache: createMissPacket: created ReadExReq [c2bc0:c2bff] from WriteReq [c2bf8:c2bff]
 877500: system.cpu T0 : @_dl_aux_init+82.1  :   MOV_R_P : ld   r12, DS:[t7 + 0x2ad797] : MemRead :  D=0x0000000000000000 A=0x6c0640
 877500: system.cpu T0 : @_dl_aux_init+89    : push	rbp                  
 877500: system.cpu T0 : @_dl_aux_init+89.0  :   PUSH_R : stis   rbp, SS:[rsp + 0xfffffffffffffff8] : MemWrite :  D=0x0000000000000000 A=0x7fffffffebf0
 878000: system.cpu T0 : @_dl_aux_init+89.1  :   PUSH_R : subi   rsp, rsp, 0x8 : IntAlu :  D=0x00007fffffffebf0
 878000: system.cpu T0 : @_dl_aux_init+90    : mov	rbp, DS:[rip + 0x2ac78f]
 878000: system.cpu T0 : @_dl_aux_init+90.0  :   MOV_R_P : rdip   t7, %ctrl153,  : IntAlu :  D=0x0000000000412eb1
 878000: system.cpu T0 : @_dl_aux_init+90.1  :   MOV_R_P : ld   rbp, DS:[t7 + 0x2ac78f] : MemRead :  D=0x0000000000000000 A=0x6bf640
 878000: system.cpu T0 : @_dl_aux_init+97    : push	rbx                  
 878000: system.cpu T0 : @_dl_aux_init+97.0  :   PUSH_R : stis   rbx, SS:[rsp + 0xfffffffffffffff8] : MemWrite :  D=0x0000000001800000 A=0x7fffffffebe8
 878000: system.cpu T0 : @_dl_aux_init+97.1  :   PUSH_R : subi   rsp, rsp, 0x8 : IntAlu :  D=0x00007fffffffebe8
 878000: system.cpu T0 : @_dl_aux_init+98    : mov	rbx, DS:[rip + 0x2ac777]
 878000: system.cpu T0 : @_dl_aux_init+98.0  :   MOV_R_P : rdip   t7, %ctrl153,  : IntAlu :  D=0x0000000000412eb9
 949500: global: Committing seq:271
 952000: system.cpu.dcache: recvTimingResp: Handling response ReadResp [c0600:c063f]
 952000: system.cpu.dcache: Block for addr 0xc0600 being updated in Cache
 952000: system.cpu.dcache: Block addr 0xc0600 (ns) moving from state 0 to state: 7 (E) valid: 1 writable: 1 readable: 1 dirty: 0 tag: 18
 952000: system.cpu.dcache: Unblocking for cause 0, mask=0
 952001: system.cpu.dcache: WriteReq [c2bf0:c2bf7] miss at addr c2bf0
 952001: system.cpu.dcache: recvTimingReq coalescing MSHR for WriteReq [c2bf0:c2bf7]
 952500: system.cpu.dcache: WriteReq [c2be8:c2bef] miss at addr c2be8
 952500: system.cpu.dcache: recvTimingReq coalescing MSHR for WriteReq [c2be8:c2bef]
 953000: system.cpu.dcache: ReadReq [c2e88:c2e8f] hit state: 7 (E) valid: 1 writable: 1 readable: 1 dirty: 0 tag: 18 at addr c2e88
 953000: system.cpu.dcache: ReadReq [c2e90:c2e97] hit state: 7 (E) valid: 1 writable: 1 readable: 1 dirty: 0 tag: 18 at addr c2e90
 878000: system.cpu T0 : @_dl_aux_init+98.1  :   MOV_R_P : ld   rbx, DS:[t7 + 0x2ac777] : MemRead :  D=0x0000000000000000 A=0x6bf630
 878000: system.cpu T0 : @_dl_aux_init+105    : hint	                     
 878000: system.cpu T0 : @_dl_aux_init+105.0  :   HINT_NOP : fault   No Fault : No_OpClass : 
 935000: system.cpu T0 : @_dl_aux_init+112    : sub	rax, 0x3              
 935000: system.cpu T0 : @_dl_aux_init+112.0  :   SUB_R_I : limm   t1, 0x3 : IntAlu :  D=0x0000000000000003
 935000: system.cpu T0 : @_dl_aux_init+112.1  :   SUB_R_I : sub   rax, rax, t1 : IntAlu :  D=0x0000000000000000
 935000: system.cpu T0 : @_dl_aux_init+116    : cmp	rax, 0x1e             
 935000: system.cpu T0 : @_dl_aux_init+116.0  :   CMP_R_I : limm   t1, 0x1e : IntAlu :  D=0x000000000000001e
 935000: system.cpu T0 : @_dl_aux_init+116.1  :   CMP_R_I : sub   t0, rax, t1 : IntAlu :  D=0x0000000000000000
 935000: system.cpu T0 : @_dl_aux_init+120    : jnbe	0x16                 
 935000: system.cpu T0 : @_dl_aux_init+120.0  :   JNBE_I : rdip   t1, %ctrl153,  : IntAlu :  D=0x0000000000412eca
 935000: system.cpu T0 : @_dl_aux_init+120.1  :   JNBE_I : limm   t2, 0x16 : IntAlu :  D=0x0000000000000016
 954500: global: Committing seq:279
 935000: system.cpu T0 : @_dl_aux_init+120.2  :   JNBE_I : wrip   , t1, t2 : IntAlu : 
 955000: global: Committing seq:280
 956500: global: Squashing seq:292
 956500: global: Allocating Target (seq: 292 br:412eea set:186 target:(0x412ec0=>0x412ec8).(0=>1))
 957000: system.cpu.dcache: recvTimingResp: Handling response ReadExResp [c15c0:c15ff]
 957000: system.cpu.dcache: Block for addr 0xc15c0 being updated in Cache
 957000: system.cpu.dcache: Block addr 0xc15c0 (ns) moving from state 0 to state: 7 (E) valid: 1 writable: 1 readable: 1 dirty: 0 tag: 18
 957000: system.cpu.icache: ReadReq [12ec0:12eff] IF hit state: 7 (E) valid: 1 writable: 1 readable: 1 dirty: 0 tag: 9 at addr 12ec0
 959500: system.cpu.icache: ReadReq [12f00:12f3f] IF miss at addr 12f00
 959500: system.cpu.icache: recvTimingReq coalescing MSHR for ReadReq [12f00:12f3f] IF
 961000: system.cpu.dcache: ReadReq [c2e98:c2e9f] hit state: 7 (E) valid: 1 writable: 1 readable: 1 dirty: 0 tag: 18 at addr c2e98
 961500: system.cpu.dcache: ReadReq [955c8:955cf] miss at addr 955c8
 962000: system.cpu.dcache: ReadReq [c2ea0:c2ea7] hit state: 7 (E) valid: 1 writable: 1 readable: 1 dirty: 0 tag: 18 at addr c2ea0
 962500: system.cpu.dcache: sendMSHRQueuePacket: MSHR ReadReq [955c8:955cf]
 962500: system.cpu.dcache: createMissPacket: created ReadSharedReq [955c0:955ff] from ReadReq [955c8:955cf]
 965000: global: Squashing seq:317
 965500: system.cpu.icache: ReadReq [12ec0:12eff] IF hit state: 7 (E) valid: 1 writable: 1 readable: 1 dirty: 0 tag: 9 at addr 12ec0
 968000: system.cpu.icache: ReadReq [12f00:12f3f] IF miss at addr 12f00
 968000: system.cpu.icache: recvTimingReq coalescing MSHR for ReadReq [12f00:12f3f] IF
 969500: system.cpu.dcache: ReadReq [c2ea8:c2eaf] hit state: 7 (E) valid: 1 writable: 1 readable: 1 dirty: 0 tag: 18 at addr c2ea8
 970000: system.cpu.dcache: ReadReq [95578:9557f] miss at addr 95578
 970000: system.cpu.dcache: Blocking for cause 0, mask=1
 971000: system.cpu.dcache: sendMSHRQueuePacket: MSHR ReadReq [95578:9557f]
 971000: system.cpu.dcache: createMissPacket: created ReadSharedReq [95540:9557f] from ReadReq [95578:9557f]
 993000: system.cpu.icache: recvTimingResp: Handling response ReadResp [12f00:12f3f] IF
 993000: system.cpu.icache: Block for addr 0x12f00 being updated in Cache
 993000: system.cpu.icache: Block addr 0x12f00 (ns) moving from state 0 to state: 7 (E) valid: 1 writable: 1 readable: 1 dirty: 0 tag: 9
 995500: global: Looking up 412f35 (set:205)
 995500: global: Miss 412f35
 995500: global: Recording 412f35 seq:367
 995500: system.cpu.icache: ReadReq [12f40:12f7f] IF miss at addr 12f40
 996500: system.cpu.icache: sendMSHRQueuePacket: MSHR ReadReq [12f40:12f7f] IF
 996500: system.cpu.icache: createMissPacket: created ReadCleanReq [12f40:12f7f] IF from ReadReq [12f40:12f7f] IF
 999500: global: Squashing seq:367
 999500: global: Allocating Target (seq: 367 br:412f35 set:205 target:(0x412f56=>0x412f5e).(0=>1))
1000000: system.cpu.icache: ReadReq [12f40:12f7f] IF miss at addr 12f40
1000000: system.cpu.icache: recvTimingReq coalescing MSHR for ReadReq [12f40:12f7f] IF
1007000: system.cpu.dcache: recvTimingResp: Handling response ReadResp [95640:9567f]
1007000: system.cpu.dcache: Block for addr 0x95640 being updated in Cache
1007000: system.cpu.dcache: Block addr 0x95640 (ns) moving from state 0 to state: 7 (E) valid: 1 writable: 1 readable: 1 dirty: 0 tag: 12
1007000: system.cpu.dcache: Unblocking for cause 0, mask=0
1008000: system.cpu.dcache: ReadReq [c2eb0:c2eb7] hit state: 7 (E) valid: 1 writable: 1 readable: 1 dirty: 0 tag: 18 at addr c2eb0
1009500: global: Squashing seq:282
1009500: global: Squashing series starting with sn:292
1010000: system.cpu.icache: ReadReq [12ec0:12eff] IF hit state: 7 (E) valid: 1 writable: 1 readable: 1 dirty: 0 tag: 9 at addr 12ec0
1011500: global: Looking up 412eea (set:186)
1011500: global: Hit 412eea (target:(0x412ec0=>0x412ec8).(0=>1))
1011500: global: Recording 412eea seq:377
1013500: system.cpu.icache: ReadReq [12f00:12f3f] IF hit state: 7 (E) valid: 1 writable: 1 readable: 1 dirty: 0 tag: 9 at addr 12f00
 935000: system.cpu T0 : @_dl_aux_init+122    : jmp	DS:[8*rax + 0x495560] 
 935000: system.cpu T0 : @_dl_aux_init+122.0  :   JMP_M : ld   t1, DS:[8*rax + 0x495560] : MemRead :  D=0x0000000000412ed8 A=0x495650
 935500: system.cpu T0 : @_dl_aux_init+122.1  :   JMP_M : wripi   , t1, 0  : IntAlu : 
1015000: system.cpu.dcache: recvTimingResp: Handling response ReadExResp [c2bc0:c2bff]
1015000: system.cpu.dcache: Block for addr 0xc2bc0 being updated in Cache
1015000: system.cpu.dcache: Block addr 0xc2bc0 (ns) moving from state 0 to state: 7 (E) valid: 1 writable: 1 readable: 1 dirty: 0 tag: 18
1015000: global: Committing seq:282
1017500: global: Looking up 412f35 (set:205)
1017500: global: Hit 412f35 (target:(0x412f56=>0x412f5e).(0=>1))
1017500: global: Recording 412f35 seq:421
1017500: system.cpu.icache: ReadReq [12f40:12f7f] IF miss at addr 12f40
1017500: system.cpu.icache: recvTimingReq coalescing MSHR for ReadReq [12f40:12f7f] IF
1018000: system.cpu.dcache: ReadReq [c2e88:c2e8f] hit state: 7 (E) valid: 1 writable: 1 readable: 1 dirty: 0 tag: 18 at addr c2e88
1019000: system.cpu.dcache: ReadReq [c2e90:c2e97] hit state: 7 (E) valid: 1 writable: 1 readable: 1 dirty: 0 tag: 18 at addr c2e90
1019500: system.cpu.dcache: ReadReq [c2e98:c2e9f] hit state: 7 (E) valid: 1 writable: 1 readable: 1 dirty: 0 tag: 18 at addr c2e98
1020500: system.cpu.dcache: ReadReq [c2ea0:c2ea7] hit state: 7 (E) valid: 1 writable: 1 readable: 1 dirty: 0 tag: 18 at addr c2ea0
1021500: system.cpu.dcache: ReadReq [955c8:955cf] miss at addr 955c8
1021500: system.cpu.dcache: recvTimingReq coalescing MSHR for ReadReq [955c8:955cf]
1011000: system.cpu T0 : @_dl_aux_init+136    : mov	r11, DS:[rdi + 0x8]   
1011000: system.cpu T0 : @_dl_aux_init+136.0  :   MOV_R_M : ld   r11, DS:[rdi + 0x8] : MemRead :  D=0xffffffffff600000 A=0x7fffffffee88
1011000: system.cpu T0 : @_dl_aux_init+140    : hint	                     
1011000: system.cpu T0 : @_dl_aux_init+140.0  :   HINT_NOP : fault   No Fault : No_OpClass : 
1011000: system.cpu T0 : @_dl_aux_init+144    : add	rax, 0x10             
1011000: system.cpu T0 : @_dl_aux_init+144.0  :   ADD_R_I : limm   t1, 0x10 : IntAlu :  D=0x0000000000000010
1011000: system.cpu T0 : @_dl_aux_init+144.1  :   ADD_R_I : add   rdi, rdi, t1 : IntAlu :  D=0x0000000000000000
1011000: system.cpu T0 : @_dl_aux_init+148    : mov	rax, DS:[rdi]         
1011000: system.cpu T0 : @_dl_aux_init+148.0  :   MOV_R_M : ld   rax, DS:[rdi] : MemRead :  D=0x0000000000000010 A=0x7fffffffee90
1022000: system.cpu.dcache: recvTimingResp: Handling response ReadResp [955c0:955ff]
1022000: system.cpu.dcache: Block for addr 0x955c0 being updated in Cache
1022000: system.cpu.dcache: Block addr 0x955c0 (ns) moving from state 0 to state: 7 (E) valid: 1 writable: 1 readable: 1 dirty: 0 tag: 12
1022000: global: Committing seq:373
1011000: system.cpu T0 : @_dl_aux_init+151    : test	rax, rax             
1011000: system.cpu T0 : @_dl_aux_init+151.0  :   TEST_R_R : and   t0, rax, rax : IntAlu :  D=0x0000000000000000
1011000: system.cpu T0 : @_dl_aux_init+154    : jnz	0xffffffffffffffd4    
1011000: system.cpu T0 : @_dl_aux_init+154.0  :   JNZ_I : rdip   t1, %ctrl153,  : IntAlu :  D=0x0000000000412eec
1011000: system.cpu T0 : @_dl_aux_init+154.1  :   JNZ_I : limm   t2, 0xffffffffffffffd4 : IntAlu :  D=0xffffffffffffffd4
1022500: global: Committing seq:376
1011500: system.cpu T0 : @_dl_aux_init+154.2  :   JNZ_I : wrip   , t1, t2  : IntAlu : 
1012000: system.cpu T0 : @_dl_aux_init+112    : sub	rax, 0x3              
1012000: system.cpu T0 : @_dl_aux_init+112.0  :   SUB_R_I : limm   t1, 0x3 : IntAlu :  D=0x0000000000000003
1012000: system.cpu T0 : @_dl_aux_init+112.1  :   SUB_R_I : sub   rax, rax, t1 : IntAlu :  D=0x0000000000000000
1012000: system.cpu T0 : @_dl_aux_init+116    : cmp	rax, 0x1e             
1012000: system.cpu T0 : @_dl_aux_init+116.0  :   CMP_R_I : limm   t1, 0x1e : IntAlu :  D=0x000000000000001e
1012000: system.cpu T0 : @_dl_aux_init+116.1  :   CMP_R_I : sub   t0, rax, t1 : IntAlu :  D=0x0000000000000001
1012000: system.cpu T0 : @_dl_aux_init+120    : jnbe	0x16                 
1012000: system.cpu T0 : @_dl_aux_init+120.0  :   JNBE_I : rdip   t1, %ctrl153,  : IntAlu :  D=0x0000000000412eca
1012000: system.cpu T0 : @_dl_aux_init+120.1  :   JNBE_I : limm   t2, 0x16 : IntAlu :  D=0x0000000000000016
1023000: global: Committing seq:383
1012000: system.cpu T0 : @_dl_aux_init+120.2  :   JNBE_I : wrip   , t1, t2 : IntAlu : 
1023500: global: Committing seq:384
1024000: global: Squashing seq:396
1024000: global: Squashing series starting with sn:421
1024500: system.cpu.icache: ReadReq [12ec0:12eff] IF hit state: 7 (E) valid: 1 writable: 1 readable: 1 dirty: 0 tag: 9 at addr 12ec0
1025000: global: Squashing seq:386
1025500: system.cpu.icache: ReadReq [12f80:12fbf] IF miss at addr 12f80
1026500: system.cpu.icache: sendMSHRQueuePacket: MSHR ReadReq [12f80:12fbf] IF
1026500: system.cpu.icache: createMissPacket: created ReadCleanReq [12f80:12fbf] IF from ReadReq [12f80:12fbf] IF
1027000: system.cpu.dcache: recvTimingResp: Handling response ReadResp [95540:9557f]
1027000: system.cpu.dcache: Block for addr 0x95540 being updated in Cache
1027000: system.cpu.dcache: Block addr 0x95540 (ns) moving from state 0 to state: 7 (E) valid: 1 writable: 1 readable: 1 dirty: 0 tag: 12
1012000: system.cpu T0 : @_dl_aux_init+122    : jmp	DS:[8*rax + 0x495560] 
1012000: system.cpu T0 : @_dl_aux_init+122.0  :   JMP_M : ld   t1, DS:[8*rax + 0x495560] : MemRead :  D=0x0000000000412fb0 A=0x4955c8
1012500: system.cpu T0 : @_dl_aux_init+122.1  :   JMP_M : wripi   , t1, 0  : IntAlu : 
1027500: global: Committing seq:386
1046000: system.cpu.icache: recvTimingResp: Handling response ReadResp [12f40:12f7f] IF
1046000: system.cpu.icache: Block for addr 0x12f40 being updated in Cache
1046000: system.cpu.icache: Block addr 0x12f40 (ns) moving from state 0 to state: 7 (E) valid: 1 writable: 1 readable: 1 dirty: 0 tag: 9
1082000: system.cpu.icache: recvTimingResp: Handling response ReadResp [12f80:12fbf] IF
1082000: system.cpu.icache: Block for addr 0x12f80 being updated in Cache
1082000: system.cpu.icache: Block addr 0x12f80 (ns) moving from state 0 to state: 7 (E) valid: 1 writable: 1 readable: 1 dirty: 0 tag: 9
1083000: global: Looking up 412fb4 (set:237)
1083000: global: Miss 412fb4
1083000: global: Recording 412fb4 seq:425
1083000: system.cpu.icache: ReadReq [12fc0:12fff] IF miss at addr 12fc0
1084000: system.cpu.icache: sendMSHRQueuePacket: MSHR ReadReq [12fc0:12fff] IF
1084000: system.cpu.icache: createMissPacket: created ReadCleanReq [12fc0:12fff] IF from ReadReq [12fc0:12fff] IF
1085500: system.cpu.dcache: ReadReq [c2e98:c2e9f] hit state: 7 (E) valid: 1 writable: 1 readable: 1 dirty: 0 tag: 18 at addr c2e98
1087000: global: Squashing seq:425
1087000: global: Allocating Target (seq: 425 br:412fb4 set:237 target:(0x412ee0=>0x412ee8).(0=>1))
1087500: system.cpu.icache: ReadReq [12ec0:12eff] IF hit state: 7 (E) valid: 1 writable: 1 readable: 1 dirty: 0 tag: 9 at addr 12ec0
1083000: system.cpu T0 : @_dl_aux_init+352    : mov	rbp, DS:[rdi + 0x8]   
1083000: system.cpu T0 : @_dl_aux_init+352.0  :   MOV_R_M : ld   rbp, DS:[rdi + 0x8] : MemRead :  D=0x00000000078bfbff A=0x7fffffffee98
1083000: system.cpu T0 : @_dl_aux_init+356    : jmp	0xffffffffffffff27    
1083000: system.cpu T0 : @_dl_aux_init+356.0  :   JMP_I : rdip   t1, %ctrl153,  : IntAlu :  D=0x0000000000412fb9
1083000: system.cpu T0 : @_dl_aux_init+356.1  :   JMP_I : limm   t2, 0xffffffffffffff27 : IntAlu :  D=0xffffffffffffff27
1083000: system.cpu T0 : @_dl_aux_init+356.2  :   JMP_I : wrip   , t1, t2  : IntAlu : 
1088000: global: Committing seq:425
1088500: global: Looking up 412eea (set:186)
1088500: global: Hit 412eea (target:(0x412ec0=>0x412ec8).(0=>1))
1088500: global: Recording 412eea seq:433
1090500: system.cpu.icache: ReadReq [12f00:12f3f] IF hit state: 7 (E) valid: 1 writable: 1 readable: 1 dirty: 0 tag: 9 at addr 12f00
[...]
21790500: system.cpu T0 : @_IO_cleanup+253    : jnz	0xb5                  
21790500: system.cpu T0 : @_IO_cleanup+253.0  :   JNZ_I : rdip   t1, %ctrl153,  : IntAlu :  D=0x0000000000427aa3
21790500: system.cpu T0 : @_IO_cleanup+253.1  :   JNZ_I : limm   t2, 0xb5  : IntAlu :  D=0x00000000000000b5
21852000: global: Committing seq:26421
21790500: system.cpu T0 : @_IO_cleanup+253.2  :   JNZ_I : wrip   , t1, t2  : IntAlu : 
21790500: system.cpu T0 : @_IO_cleanup+259    : and	eax, 0x1008           
21790500: system.cpu T0 : @_IO_cleanup+259.0  :   AND_R_I : limm   t1d, 0x1008 : IntAlu :  D=0x0000000000001008
21790500: system.cpu T0 : @_IO_cleanup+259.1  :   AND_R_I : and   edx, edx, t1d : IntAlu :  D=0x0000000000000000
21791000: system.cpu T0 : @_IO_cleanup+265    : cmp	eax, 0x8              
21791000: system.cpu T0 : @_IO_cleanup+265.0  :   CMP_R_I : limm   t1d, 0x8 : IntAlu :  D=0x0000000000000008
21852500: global: Committing seq:26425
21852500: global: Looking up 427b69 (set:218)
21852500: global: Hit 427b69 (target:(0x427a98=>0x427aa0).(0=>1))
21852500: global: Recording 427b69 seq:26591
21852500: system.cpu.icache: ReadReq [27a80:27abf] IF hit state: 7 (E) valid: 1 writable: 1 readable: 1 dirty: 0 tag: 13 at addr 27a80
21853000: global: Squashing seq:26429
21853000: global: Squashing series starting with sn:26434
21853000: global: Allocating Target (seq: 26429 br:427aac set:171 target:(0x427b58=>0x427b60).(0=>1))
21853500: system.cpu.icache: ReadReq [27b40:27b7f] IF hit state: 7 (E) valid: 1 writable: 1 readable: 1 dirty: 0 tag: 13 at addr 27b40
21854500: global: Looking up 427b69 (set:218)
21854500: global: Hit 427b69 (target:(0x427a98=>0x427aa0).(0=>1))
21854500: global: Recording 427b69 seq:26598
21854500: system.cpu.icache: ReadReq [27a80:27abf] IF hit state: 7 (E) valid: 1 writable: 1 readable: 1 dirty: 0 tag: 13 at addr 27a80
21856000: global: Looking up 427aac (set:171)
21856000: global: Hit 427aac (target:(0x427b58=>0x427b60).(0=>1))
21856000: global: Recording 427aac seq:26611
21856000: system.cpu.icache: ReadReq [27b40:27b7f] IF hit state: 7 (E) valid: 1 writable: 1 readable: 1 dirty: 0 tag: 13 at addr 27b40
21857000: global: Looking up 427b69 (set:218)
21857000: global: Hit 427b69 (target:(0x427a98=>0x427aa0).(0=>1))
21857000: global: Recording 427b69 seq:26618
21857000: system.cpu.icache: ReadReq [27a80:27abf] IF hit state: 7 (E) valid: 1 writable: 1 readable: 1 dirty: 0 tag: 13 at addr 27a80
21791000: system.cpu T0 : @_IO_cleanup+265.1  :   CMP_R_I : sub   t0d, edx, t1d : IntAlu :  D=0x0000000000000000
21791000: system.cpu T0 : @_IO_cleanup+268    : jz	0xa6                   
21791000: system.cpu T0 : @_IO_cleanup+268.0  :   JZ_I : rdip   t1, %ctrl153,  : IntAlu :  D=0x0000000000427ab2
21791000: system.cpu T0 : @_IO_cleanup+268.1  :   JZ_I : limm   t2, 0xa6   : IntAlu :  D=0x00000000000000a6
21791000: system.cpu T0 : @_IO_cleanup+268.2  :   JZ_I : wrip   , t1, t2   : IntAlu : 
21860500: global: Committing seq:26429
21862500: global: Looking up 427aac (set:171)
21862500: global: Hit 427aac (target:(0x427b58=>0x427b60).(0=>1))
21862500: global: Recording 427aac seq:26631
21862500: system.cpu.icache: ReadReq [27b40:27b7f] IF hit state: 7 (E) valid: 1 writable: 1 readable: 1 dirty: 0 tag: 13 at addr 27b40
21863500: global: Looking up 427b69 (set:218)
21863500: global: Hit 427b69 (target:(0x427a98=>0x427aa0).(0=>1))
21863500: global: Recording 427b69 seq:26638
21863500: system.cpu.icache: ReadReq [27a80:27abf] IF hit state: 7 (E) valid: 1 writable: 1 readable: 1 dirty: 0 tag: 13 at addr 27a80
21863500: system.cpu.dcache: ReadReq [bf0c8:bf0cf] hit state: 7 (E) valid: 1 writable: 1 readable: 1 dirty: 0 tag: 17 at addr bf0c8
21854500: system.cpu T0 : @_IO_cleanup+440    : mov	DS:[rbx + 0xc0], 0xffffffffffffffff
21854500: system.cpu T0 : @_IO_cleanup+440.0  :   MOV_M_I : limm   t1d, 0xffffffffffffffff : IntAlu :  D=0x00000000ffffffff
21865000: global: Committing seq:26592
21865000: global: Looking up 427aac (set:171)
21865000: global: Hit 427aac (target:(0x427b58=>0x427b60).(0=>1))
21865000: global: Recording 427aac seq:26651
21865000: system.cpu.icache: ReadReq [27b40:27b7f] IF hit state: 7 (E) valid: 1 writable: 1 readable: 1 dirty: 0 tag: 13 at addr 27b40
21854500: system.cpu T0 : @_IO_cleanup+440.1  :   MOV_M_I : st   t1d, DS:[rbx + 0xc0] : MemWrite :  D=0x00000000ffffffff A=0x6be120
21865500: global: Committing seq:26593
21854500: system.cpu T0 : @_IO_cleanup+450    : mov	rbx, DS:[rbx + 0x68]  
21854500: system.cpu T0 : @_IO_cleanup+450.0  :   MOV_R_M : ld   rbx, DS:[rbx + 0x68] : MemRead :  D=0x0000000000000000 A=0x6be0c8
21866000: global: Committing seq:26594
21866000: global: Looking up 427b69 (set:218)
21866000: global: Hit 427b69 (target:(0x427a98=>0x427aa0).(0=>1))
21866000: global: Recording 427b69 seq:26658
21866000: system.cpu.icache: ReadReq [27a80:27abf] IF hit state: 7 (E) valid: 1 writable: 1 readable: 1 dirty: 0 tag: 13 at addr 27a80
21866000: system.cpu.dcache: WriteReq [bf120:bf123] hit state: 7 (E) valid: 1 writable: 1 readable: 1 dirty: 0 tag: 17 at addr bf120
21866500: global: Squashing seq:26598
21866500: global: Squashing series starting with sn:26611
21867000: system.cpu.icache: ReadReq [27b40:27b7f] IF hit state: 7 (E) valid: 1 writable: 1 readable: 1 dirty: 0 tag: 13 at addr 27b40
21854500: system.cpu T0 : @_IO_cleanup+454    : test	rbx, rbx             
21854500: system.cpu T0 : @_IO_cleanup+454.0  :   TEST_R_R : and   t0, rbx, rbx : IntAlu :  D=0x0000000000000000
21854500: system.cpu T0 : @_IO_cleanup+457    : jnz	0xffffffffffffff29    
21854500: system.cpu T0 : @_IO_cleanup+457.0  :   JNZ_I : rdip   t1, %ctrl153,  : IntAlu :  D=0x0000000000427b6f
21854500: system.cpu T0 : @_IO_cleanup+457.1  :   JNZ_I : limm   t2, 0xffffffffffffff29 : IntAlu :  D=0xffffffffffffff29
21854500: system.cpu T0 : @_IO_cleanup+457.2  :   JNZ_I : wrip   , t1, t2  : IntAlu : 
21869000: global: Committing seq:26598
21869000: system.cpu.icache: ReadReq [27b80:27bbf] IF hit state: 7 (E) valid: 1 writable: 1 readable: 1 dirty: 0 tag: 13 at addr 27b80
21870000: system.cpu.icache: ReadReq [9440:947f] IF hit state: 7 (E) valid: 1 writable: 1 readable: 1 dirty: 0 tag: 4 at addr 9440
21871000: global: Looking up 40946f (set:27)
21871000: global: Hit 40946f (target:(0x4094c8=>0x4094d0).(0=>1))
21871000: global: Recording 40946f seq:26687
21871000: system.cpu.icache: ReadReq [94c0:94ff] IF hit state: 7 (E) valid: 1 writable: 1 readable: 1 dirty: 0 tag: 4 at addr 94c0
21872000: global: Looking up 4094cb (set:50)
21872000: global: Hit 4094cb (target:(0x409471=>0x409479).(0=>1))
21872000: global: Recording 4094cb seq:26691
21872000: system.cpu.icache: ReadReq [9440:947f] IF hit state: 7 (E) valid: 1 writable: 1 readable: 1 dirty: 0 tag: 4 at addr 9440
21873000: global: Looking up 409474 (set:29)
21873000: global: Miss 409474
21873000: global: Recording 409474 seq:26695
21873000: system.cpu.dcache: ReadReq [c2ba8:c2baf] hit state: f (M) valid: 1 writable: 1 readable: 1 dirty: 1 tag: 18 at addr c2ba8
21868000: system.cpu T0 : @_IO_cleanup+463    : add	rax, 0x8              
21868000: system.cpu T0 : @_IO_cleanup+463.0  :   ADD_R_I : limm   t1, 0x8 : IntAlu :  D=0x0000000000000008
21873500: global: Committing seq:26659
21873500: global: Looking up 40947d (set:31)
21873500: global: Hit 40947d (target:(0x40948a=>0x409492).(0=>1))
21873500: global: Recording 40947d seq:26702
21873500: system.cpu.icache: ReadReq [9480:94bf] IF hit state: 7 (E) valid: 1 writable: 1 readable: 1 dirty: 0 tag: 4 at addr 9480
21873500: system.cpu.dcache: ReadReq [c2bb0:c2bb7] hit state: f (M) valid: 1 writable: 1 readable: 1 dirty: 1 tag: 18 at addr c2bb0
21868000: system.cpu T0 : @_IO_cleanup+463.1  :   ADD_R_I : add   rsp, rsp, t1 : IntAlu :  D=0x0000000000000000
21868000: system.cpu T0 : @_IO_cleanup+467    : mov	eax, r12d             
21868000: system.cpu T0 : @_IO_cleanup+467.0  :   MOV_R_R : mov   eax, eax, r12d : IntAlu :  D=0x0000000000000000
21874000: global: Committing seq:26661
21874000: system.cpu.dcache: ReadReq [c2bb8:c2bbf] hit state: f (M) valid: 1 writable: 1 readable: 1 dirty: 1 tag: 18 at addr c2bb8
21874500: system.cpu.dcache: ReadReq [c2bc0:c2bc7] hit state: f (M) valid: 1 writable: 1 readable: 1 dirty: 1 tag: 18 at addr c2bc0
21875000: system.cpu.dcache: ReadReq [c2bc8:c2bcf] hit state: f (M) valid: 1 writable: 1 readable: 1 dirty: 1 tag: 18 at addr c2bc8
21868000: system.cpu T0 : @_IO_cleanup+470    : pop	rbx                   
21868000: system.cpu T0 : @_IO_cleanup+470.0  :   POP_R : ldis   t1, SS:[rsp] : MemRead :  D=0x0000000000000000 A=0x7fffffffeba8
21868000: system.cpu T0 : @_IO_cleanup+470.1  :   POP_R : addi   rsp, rsp, 0x8 : IntAlu :  D=0x00007fffffffebb0
21875500: global: Committing seq:26663
21875500: system.cpu.icache: ReadReq [11080:110bf] IF hit state: 7 (E) valid: 1 writable: 1 readable: 1 dirty: 0 tag: 8 at addr 11080
21875500: system.cpu.dcache: ReadReq [c2bd0:c2bd7] hit state: f (M) valid: 1 writable: 1 readable: 1 dirty: 1 tag: 18 at addr c2bd0
21868000: system.cpu T0 : @_IO_cleanup+470.2  :   POP_R : mov   rbx, rbx, t1 : IntAlu :  D=0x0000000000000000
21868000: system.cpu T0 : @_IO_cleanup+471    : pop	rbp                   
21868000: system.cpu T0 : @_IO_cleanup+471.0  :   POP_R : ldis   t1, SS:[rsp] : MemRead :  D=0x00000000004ae248 A=0x7fffffffebb0
21868000: system.cpu T0 : @_IO_cleanup+471.1  :   POP_R : addi   rsp, rsp, 0x8 : IntAlu :  D=0x00007fffffffebb8
21876000: global: Committing seq:26666
21876000: system.cpu.dcache: ReadReq [c2bd8:c2bdf] hit state: f (M) valid: 1 writable: 1 readable: 1 dirty: 1 tag: 18 at addr c2bd8
21876500: global: Squashing seq:26687
21876500: global: Squashing series starting with sn:26691
21877000: system.cpu.icache: ReadReq [9440:947f] IF hit state: 7 (E) valid: 1 writable: 1 readable: 1 dirty: 0 tag: 4 at addr 9440
21868500: system.cpu T0 : @_IO_cleanup+471.2  :   POP_R : mov   rbp, rbp, t1 : IntAlu :  D=0x00000000004ae248
21868500: system.cpu T0 : @_IO_cleanup+472    : pop	r12                   
21868500: system.cpu T0 : @_IO_cleanup+472.0  :   POP_R : ldis   t1, SS:[rsp] : MemRead :  D=0x0000000000000001 A=0x7fffffffebb8
21868500: system.cpu T0 : @_IO_cleanup+472.1  :   POP_R : addi   rsp, rsp, 0x8 : IntAlu :  D=0x00007fffffffebc0
21868500: system.cpu T0 : @_IO_cleanup+472.2  :   POP_R : mov   r12, r12, t1 : IntAlu :  D=0x0000000000000001
21868500: system.cpu T0 : @_IO_cleanup+474    : pop	r13                   
21868500: system.cpu T0 : @_IO_cleanup+474.0  :   POP_R : ldis   t1, SS:[rsp] : MemRead :  D=0x00000000006bf020 A=0x7fffffffebc0
21868500: system.cpu T0 : @_IO_cleanup+474.1  :   POP_R : addi   rsp, rsp, 0x8 : IntAlu :  D=0x00007fffffffebc8
21868500: system.cpu T0 : @_IO_cleanup+474.2  :   POP_R : mov   r13, r13, t1 : IntAlu :  D=0x00000000006bf020
21868500: system.cpu T0 : @_IO_cleanup+476    : pop	r14                   
21868500: system.cpu T0 : @_IO_cleanup+476.0  :   POP_R : ldis   t1, SS:[rsp] : MemRead :  D=0x0000000000402010 A=0x7fffffffebc8
21877500: global: Committing seq:26674
21869000: system.cpu T0 : @_IO_cleanup+476.1  :   POP_R : addi   rsp, rsp, 0x8 : IntAlu :  D=0x00007fffffffebd0
21869000: system.cpu T0 : @_IO_cleanup+476.2  :   POP_R : mov   r14, r14, t1 : IntAlu :  D=0x0000000000402010
21869000: system.cpu T0 : @_IO_cleanup+478    : pop	r15                   
21869000: system.cpu T0 : @_IO_cleanup+478.0  :   POP_R : ldis   t1, SS:[rsp] : MemRead :  D=0x0000000000000000 A=0x7fffffffebd0
21869000: system.cpu T0 : @_IO_cleanup+478.1  :   POP_R : addi   rsp, rsp, 0x8 : IntAlu :  D=0x00007fffffffebd8
21878000: global: Committing seq:26678
21878000: global: Looking up 409474 (set:29)
21878000: global: Miss 409474
21878000: global: Recording 409474 seq:26724
21878500: global: Squashing seq:26682
21878500: global: Squashing series starting with sn:26687
21879000: system.cpu.icache: ReadReq [20c0:20ff] IF hit state: 7 (E) valid: 1 writable: 1 readable: 1 dirty: 0 tag: 1 at addr 20c0
21869000: system.cpu T0 : @_IO_cleanup+478.2  :   POP_R : mov   r15, r15, t1 : IntAlu :  D=0x0000000000000000
21870000: system.cpu T0 : @_IO_cleanup+480    : ret	                      
21870000: system.cpu T0 : @_IO_cleanup+480.0  :   RET_NEAR : ld   t1, SS:[rsp] : MemRead :  D=0x00000000004020e8 A=0x7fffffffebd8
21870000: system.cpu T0 : @_IO_cleanup+480.1  :   RET_NEAR : addi   rsp, rsp, 0x8 : IntAlu :  D=0x00007fffffffebe0
21870000: system.cpu T0 : @_IO_cleanup+480.2  :   RET_NEAR : wripi   , t1, 0 : IntAlu : 
21880000: global: Committing seq:26682
21880000: global: Looking up 4020f3 (set:60)
21880000: global: Hit 4020f3 (target:(0x44597e=>0x445986).(0=>1))
21880000: global: Recording 4020f3 seq:26735
21880000: system.cpu.icache: ReadReq [45940:4597f] IF hit state: 7 (E) valid: 1 writable: 1 readable: 1 dirty: 0 tag: 22 at addr 45940
21881000: system.cpu.icache: ReadReq [45980:459bf] IF hit state: 7 (E) valid: 1 writable: 1 readable: 1 dirty: 0 tag: 22 at addr 45980
21883000: system.cpu.icache: ReadReq [11080:110bf] IF hit state: 7 (E) valid: 1 writable: 1 readable: 1 dirty: 0 tag: 8 at addr 11080
21884000: system.cpu.icache: ReadReq [110c0:110ff] IF hit state: 7 (E) valid: 1 writable: 1 readable: 1 dirty: 0 tag: 8 at addr 110c0
21880000: system.cpu T0 : @__run_exit_handlers+136    : add	rax, 0x8              
21880000: system.cpu T0 : @__run_exit_handlers+136.0  :   ADD_R_I : limm   t1, 0x8 : IntAlu :  D=0x0000000000000008
21884500: global: Committing seq:26729
21880000: system.cpu T0 : @__run_exit_handlers+136.1  :   ADD_R_I : add   rbp, rbp, t1 : IntAlu :  D=0x0000000000000000
21880000: system.cpu T0 : @__run_exit_handlers+140    : cmp	rax, 0x4ae250         
21880000: system.cpu T0 : @__run_exit_handlers+140.0  :   CMP_R_I : limm   t1, 0x4ae250 : IntAlu :  D=0x00000000004ae250
21885000: global: Committing seq:26731
21885000: global: Looking up 4110c8 (set:50)
21885000: global: Hit 4110c8 (target:(0x409471=>0x409479).(0=>1))
21885000: global: Recording 4110c8 seq:26764
21885000: system.cpu.icache: ReadReq [9440:947f] IF hit state: 7 (E) valid: 1 writable: 1 readable: 1 dirty: 0 tag: 4 at addr 9440
21885500: global: Squashing seq:26735
21885500: global: Squashing series starting with sn:26764
21886000: system.cpu.icache: ReadReq [20c0:20ff] IF hit state: 7 (E) valid: 1 writable: 1 readable: 1 dirty: 0 tag: 1 at addr 20c0
21880000: system.cpu T0 : @__run_exit_handlers+140.1  :   CMP_R_I : sub   t0, rbp, t1 : IntAlu :  D=0x0000000000000000
21880000: system.cpu T0 : @__run_exit_handlers+147    : jb	0xfffffffffffffff0     
21880000: system.cpu T0 : @__run_exit_handlers+147.0  :   JB_I : rdip   t1, %ctrl153,  : IntAlu :  D=0x00000000004020f5
21880000: system.cpu T0 : @__run_exit_handlers+147.1  :   JB_I : limm   t2, 0xfffffffffffffff0 : IntAlu :  D=0xfffffffffffffff0
21880000: system.cpu T0 : @__run_exit_handlers+147.2  :   JB_I : wrip   , t1, t2   : IntAlu : 
21887000: global: Committing seq:26735
21887000: global: Looking up 4020f7 (set:61)
21887000: global: Hit 4020f7 (target:(0x40104f=>0x401057).(0=>1))
21887000: global: Recording 4020f7 seq:26770
21887000: system.cpu.icache: ReadReq [1040:107f] IF hit state: 7 (E) valid: 1 writable: 1 readable: 1 dirty: 0 tag: 0 at addr 1040
21889000: system.cpu.icache: ReadReq [1080:10bf] IF hit state: 7 (E) valid: 1 writable: 1 readable: 1 dirty: 0 tag: 0 at addr 1080
21890000: global: Looking up 40108d (set:35)
21890000: global: Hit 40108d (target:(0x4010b8=>0x4010c0).(0=>1))
21890000: global: Recording 40108d seq:26793
21890500: system.cpu.icache: ReadReq [10c0:10ff] IF hit state: 7 (E) valid: 1 writable: 1 readable: 1 dirty: 0 tag: 0 at addr 10c0
21891500: global: Squashing seq:26770
21891500: global: Squashing series starting with sn:26793
21891500: global: Updating Target (seq: 26770 br:4020f7 set:61 target:(0x410cc0=>0x410cc8).(0=>1))
21892000: system.cpu.icache: ReadReq [10cc0:10cff] IF hit state: 7 (E) valid: 1 writable: 1 readable: 1 dirty: 0 tag: 8 at addr 10cc0
21887000: system.cpu T0 : @__run_exit_handlers+149    : mov	edi, ebx              
21887000: system.cpu T0 : @__run_exit_handlers+149.0  :   MOV_R_R : mov   edi, edi, ebx : IntAlu :  D=0x0000000000000000
21887000: system.cpu T0 : @__run_exit_handlers+151    : call	0xebc4               
21887000: system.cpu T0 : @__run_exit_handlers+151.0  :   CALL_NEAR_I : limm   t1, 0xebc4 : IntAlu :  D=0x000000000000ebc4
21887000: system.cpu T0 : @__run_exit_handlers+151.1  :   CALL_NEAR_I : rdip   t7, %ctrl153,  : IntAlu :  D=0x00000000004020fc
21887000: system.cpu T0 : @__run_exit_handlers+151.2  :   CALL_NEAR_I : stis   t7, SS:[rsp + 0xfffffffffffffff8] : MemWrite :  D=0x00000000004020fc A=0x7fffffffebd8
21887000: system.cpu T0 : @__run_exit_handlers+151.3  :   CALL_NEAR_I : subi   rsp, rsp, 0x8 : IntAlu :  D=0x00007fffffffebd8
21887000: system.cpu T0 : @__run_exit_handlers+151.4  :   CALL_NEAR_I : wrip   , t7, t1 : IntAlu : 
21892500: global: Committing seq:26770
21893000: global: Looking up 410cd6 (set:53)
21893000: global: Hit 410cd6 (target:(0x401482=>0x40148a).(0=>1))
21893000: global: Recording 410cd6 seq:26806
21893000: system.cpu.icache: ReadReq [1480:14bf] IF hit state: 7 (E) valid: 1 writable: 1 readable: 1 dirty: 0 tag: 0 at addr 1480
21893000: system.cpu.dcache: WriteReq [c2bd8:c2bdf] hit state: f (M) valid: 1 writable: 1 readable: 1 dirty: 1 tag: 18 at addr c2bd8
21895000: global: Looking up 4014ab (set:42)
21895000: global: Hit 4014ab (target:(0x4010c4=>0x4010cc).(0=>1))
21895000: global: Recording 4014ab seq:26824
21895000: system.cpu.icache: ReadReq [10c0:10ff] IF hit state: 7 (E) valid: 1 writable: 1 readable: 1 dirty: 0 tag: 0 at addr 10c0
21896000: global: Looking up 4010c4 (set:49)
21896000: global: Hit 4010c4 (target:(0x4010d0=>0x4010d8).(0=>1))
21896000: global: Recording 4010c4 seq:26829
21897000: global: Squashing seq:26806
21897000: global: Squashing series starting with sn:26824
21897000: global: Updating Target (seq: 26806 br:410cd6 set:53 target:(0x410cf1=>0x410cf9).(0=>1))
21897500: system.cpu.icache: ReadReq [10cc0:10cff] IF hit state: 7 (E) valid: 1 writable: 1 readable: 1 dirty: 0 tag: 8 at addr 10cc0
21893000: system.cpu T0 : @_Exit    : movsxd	rdx, rdi           
21893000: system.cpu T0 : @_Exit.0  :   MOVSXD_R_R : sexti   rdx, rdi, 0x1f : IntAlu :  D=0x0000000000000000
21893000: system.cpu T0 : @_Exit+3    : mov	r15, 0xffffffffffffffc0
21893000: system.cpu T0 : @_Exit+3.0  :   MOV_R_I : limm   r10, 0xffffffffffffffc0 : IntAlu :  D=0xffffffffffffffc0
21893000: system.cpu T0 : @_Exit+10    : mov	r9d, 0xe7             
21893000: system.cpu T0 : @_Exit+10.0  :   MOV_R_I : limm   r9d, 0xe7 : IntAlu :  D=0x00000000000000e7
21893000: system.cpu T0 : @_Exit+16    : mov	r8d, 0x3c             
21893000: system.cpu T0 : @_Exit+16.0  :   MOV_R_I : limm   r8d, 0x3c : IntAlu :  D=0x000000000000003c
21893000: system.cpu T0 : @_Exit+22    : jmp	0x19                  
21893000: system.cpu T0 : @_Exit+22.0  :   JMP_I : rdip   t1, %ctrl153,  : IntAlu :  D=0x0000000000410cd8
21893000: system.cpu T0 : @_Exit+22.1  :   JMP_I : limm   t2, 0x19  : IntAlu :  D=0x0000000000000019
21893000: system.cpu T0 : @_Exit+22.2  :   JMP_I : wrip   , t1, t2  : IntAlu : 
21898000: global: Committing seq:26806
21898500: system.cpu.icache: ReadReq [10d00:10d3f] IF miss at addr 10d00
21899500: system.cpu.icache: sendMSHRQueuePacket: MSHR ReadReq [10d00:10d3f] IF
21899500: system.cpu.icache: createMissPacket: created ReadCleanReq [10d00:10d3f] IF from ReadReq [10d00:10d3f] IF
21898500: system.cpu T0 : @_Exit+49    : mov	rdi, rdx              
21898500: system.cpu T0 : @_Exit+49.0  :   MOV_R_R : mov   rdi, rdi, rdx : IntAlu :  D=0x0000000000000000
21898500: system.cpu T0 : @_Exit+52    : mov	eax, r9d              
21898500: system.cpu T0 : @_Exit+52.0  :   MOV_R_R : mov   eax, eax, r9d : IntAlu :  D=0x00000000000000e7
21902500: global: Committing seq:26835
Exiting @ tick 21904000 because exiting with last active thread context
